@<TRIPOS>MOLECULE
M2P
   32    31     1     0     0
SMALL
abcg2


@<TRIPOS>ATOM
      1 C1           0.5910    -7.0850     7.7090 c3         1 M2P       0.238600
      2 C5          -2.8540    -8.2270     4.1830 c3         1 M2P       0.148300
      3 C6          -4.3350    -8.4740     3.9910 c3         1 M2P       0.238600
      4 C4          -2.5060    -8.2710     5.6850 c3         1 M2P       0.130800
      5 C3          -1.2610    -7.4550     6.0190 c3         1 M2P       0.130800
      6 C2          -0.8430    -7.5470     7.4980 c3         1 M2P       0.148300
      7 O1           0.8730    -5.9630     6.8880 os         1 M2P      -0.592400
      8 O2          -1.7120    -6.7230     8.2910 oh         1 M2P      -0.716000
      9 O3          -0.2090    -7.8530     5.1350 oh         1 M2P      -0.735500
     10 O4          -2.3610    -9.6600     6.0080 oh         1 M2P      -0.735500
     11 O6          -4.6300    -8.7220     2.6320 os         1 M2P      -0.592400
     12 P6          -6.2440    -8.9110     2.2070 p5         1 M2P       1.294900
     13 O62         -6.9260    -7.6070     2.6080 o          1 M2P      -0.942333
     14 O63         -6.7350   -10.1210     2.9950 o          1 M2P      -0.942333
     15 O61         -6.1510    -9.1340     0.7050 o          1 M2P      -0.942333
     16 H11A         0.7270    -6.8400     8.7650 h1         1 M2P       0.006950
     17 H12          1.2680    -7.9070     7.4640 h1         1 M2P       0.006950
     18 H5          -2.2890    -9.0260     3.6980 h1         1 M2P       0.017200
     19 H61         -4.6280    -9.3260     4.6090 h1         1 M2P       0.006950
     20 H62A        -4.8820    -7.5950     4.3480 h1         1 M2P       0.006950
     21 H4          -3.3370    -7.8490     6.2570 h1         1 M2P       0.047200
     22 H3          -1.5080    -6.4070     5.8400 h1         1 M2P       0.047200
     23 H2          -0.9040    -8.5800     7.8480 h1         1 M2P       0.017200
     24 HO2         -2.5630    -7.1610     8.3840 ho         1 M2P       0.473000
     25 HO3          0.5080    -7.2220     5.2890 ho         1 M2P       0.507000
     26 HO4         -2.6440    -9.8060     6.9150 ho         1 M2P       0.507000
     27 P1           2.3930    -5.2390     6.9900 p5         1 M2P       1.294900
     28 O5          -2.5290    -6.9750     3.5790 oh         1 M2P      -0.716000
     29 HO5         -1.5670    -6.9040     3.5820 ho         1 M2P       0.473000
     30 O12          3.3920    -6.3520     6.7010 o          1 M2P      -0.942333
     31 O13          2.4850    -4.6870     8.4060 o          1 M2P      -0.942333
     32 O11          2.2890    -4.1790     5.9050 o          1 M2P      -0.942333
@<TRIPOS>BOND
     1     1     6 1   
     2     1     7 1   
     3     1    16 1   
     4     1    17 1   
     5     2     3 1   
     6     2     4 1   
     7     2    18 1   
     8     2    28 1   
     9     3    11 1   
    10     3    19 1   
    11     3    20 1   
    12     4     5 1   
    13     4    10 1   
    14     4    21 1   
    15     5     6 1   
    16     5     9 1   
    17     5    22 1   
    18     6     8 1   
    19     6    23 1   
    20     7    27 1   
    21     8    24 1   
    22     9    25 1   
    23    10    26 1   
    24    11    12 1   
    25    12    13 1   
    26    12    14 1   
    27    12    15 1   
    28    27    30 1   
    29    27    31 1   
    30    27    32 1   
    31    28    29 1   
@<TRIPOS>SUBSTRUCTURE
     1 M2P         1 TEMP              0 ****  ****    0 ROOT
