@<TRIPOS>MOLECULE
M3Q
   23    24     1     0     0
SMALL
abcg2


@<TRIPOS>ATOM
      1 C05         14.5040    11.5960     5.0600 c3         1 M3Q      -0.332100
      2 C06         13.9670    12.9570     5.3530 ca         1 M3Q       0.117700
      3 C07         13.3190    13.2230     6.5420 ca         1 M3Q      -0.180000
      4 C08         12.7690    14.4840     6.8380 ca         1 M3Q      -0.066000
      5 C09         12.8630    15.5130     5.9360 ca         1 M3Q      -0.216000
      6 C10         13.5250    15.3030     4.7060 ca         1 M3Q      -0.054000
      7 C11         13.6600    16.3270     3.7410 ca         1 M3Q      -0.105000
      8 C12         14.3200    16.0740     2.5710 ca         1 M3Q      -0.186000
      9 C13         14.8550    14.7850     2.3690 ca         1 M3Q       0.286900
     10 C15         14.0880    14.0230     4.4070 ca         1 M3Q       0.254000
     11 N14         14.7520    13.8040     3.2360 nb         1 M3Q      -0.581000
     12 O01         14.1240     9.1290     4.0740 o          1 M3Q      -0.909500
     13 O03         12.5080    10.9450     3.2800 o          1 M3Q      -0.909500
     14 O04         12.3430    10.0430     5.6670 o          1 M3Q      -0.909500
     15 P02         13.2520    10.3270     4.4660 p5         1 M3Q       1.264500
     16 H1          14.9430    11.1710     5.9640 hc         1 M3Q       0.049200
     17 H2          15.2800    11.6540     4.3010 hc         1 M3Q       0.049200
     18 H3          13.2260    12.4270     7.2690 ha         1 M3Q       0.131000
     19 H4          12.2720    14.6360     7.7860 ha         1 M3Q       0.074000
     20 H5          12.4450    16.4870     6.1500 ha         1 M3Q       0.071000
     21 H6          13.2380    17.3030     3.9470 ha         1 M3Q       0.079000
     22 H7          14.4410    16.8330     1.8110 ha         1 M3Q       0.080000
     23 H8          15.3920    14.5670     1.4510 h4         1 M3Q      -0.009900
@<TRIPOS>BOND
     1     1     2 1   
     2     1    15 1   
     3     1    16 1   
     4     1    17 1   
     5     2     3 ar  
     6     2    10 ar  
     7     3     4 ar  
     8     3    18 1   
     9     4     5 ar  
    10     4    19 1   
    11     5     6 ar  
    12     5    20 1   
    13     6     7 ar  
    14     6    10 ar  
    15     7     8 ar  
    16     7    21 1   
    17     8     9 ar  
    18     8    22 1   
    19     9    11 ar  
    20     9    23 1   
    21    10    11 ar  
    22    12    15 1   
    23    13    15 1   
    24    14    15 1   
@<TRIPOS>SUBSTRUCTURE
     1 M3Q         1 TEMP              0 ****  ****    0 ROOT
