@<TRIPOS>MOLECULE
MDU
   38    39     1     0     0
SMALL
abcg2


@<TRIPOS>ATOM
      1 P            0.4490    -0.0000    -1.3150 p5         1 MDU       1.259900
      2 N1           0.1830    -1.8130     3.3720 n          1 MDU      -0.319000
      3 C2          -0.4160    -2.6350     4.2900 c          1 MDU       0.611000
      4 O2           0.2390    -3.3230     5.0500 o          1 MDU      -0.615000
      5 N3          -1.7970    -2.6330     4.2870 n          1 MDU      -0.408400
      6 C4          -2.5910    -1.8070     3.4890 c          1 MDU       0.582200
      7 O4          -3.8010    -1.7920     3.6460 o          1 MDU      -0.602000
      8 C5          -1.8890    -1.0180     2.5060 cc         1 MDU      -0.273400
      9 C6          -0.5440    -1.0540     2.5010 cd         1 MDU       0.039600
     10 C1           1.6650    -1.7500     3.4210 c5         1 MDU       0.354700
     11 O1P          1.3590     0.2860    -2.5030 o          1 MDU      -0.915500
     12 C7           2.3420    -2.9860     2.8210 c5         1 MDU      -0.115400
     13 C21         -2.4920    -3.4820     5.2550 c3         1 MDU       0.322000
     14 O22         -2.8590    -2.7960     6.4060 oh         1 MDU      -0.669000
     15 O2P         -0.4770     1.1470    -0.9220 o          1 MDU      -0.915500
     16 C3           3.5380    -2.3950     2.0910 c5         1 MDU       0.122300
     17 O3           4.5850    -2.2510     3.0230 oh         1 MDU      -0.738000
     18 C8           2.9730    -1.0530     1.6280 c5         1 MDU       0.113300
     19 O6           2.1030    -0.6530     2.6890 os         1 MDU      -0.430000
     20 C9           2.2460    -1.1770     0.2950 c3         1 MDU       0.234600
     21 O5           1.5090    -0.0260     0.0470 os         1 MDU      -0.579400
     22 C5M         -2.6790    -0.1630     1.5690 c3         1 MDU      -0.029900
     23 H6           0.0290    -0.4610     1.8010 h4         1 MDU       0.301000
     24 H1           1.9280    -1.6130     4.4730 h2         1 MDU       0.070700
     25 H2           2.6310    -3.7110     3.5790 hc         1 MDU       0.073200
     26 H2'A         1.6740    -3.4860     2.1190 hc         1 MDU       0.073200
     27 H21         -3.3430    -3.9280     4.7410 h2         1 MDU       0.062200
     28 H3           3.8430    -3.0150     1.2390 h1         1 MDU       0.051700
     29 HO3          5.3240    -1.8120     2.5910 ho         1 MDU       0.493000
     30 H4           3.7470    -0.2830     1.5520 h1         1 MDU       0.065700
     31 H5           3.0190    -1.3580    -0.4700 h1         1 MDU       0.000700
     32 H5'A         1.6100    -2.0730     0.2990 h1         1 MDU       0.000700
     33 H5M         -2.0270     0.3280     0.8470 hc         1 MDU       0.060033
     34 H5MA        -3.4110    -0.7510     1.0140 hc         1 MDU       0.060033
     35 H5MB        -3.2320     0.6090     2.1080 hc         1 MDU       0.060033
     36 O9          -0.1930    -1.3850    -1.3250 o          1 MDU      -0.915500
     37 H16         -1.8120    -4.2760     5.5450 h2         1 MDU       0.062200
     38 H17         -3.6420    -2.2700     6.2140 ho         1 MDU       0.452000
@<TRIPOS>BOND
     1     1    11 1   
     2     1    15 1   
     3     1    21 1   
     4     1    36 1   
     5     2     3 1   
     6     2     9 1   
     7     2    10 1   
     8     3     4 2   
     9     3     5 1   
    10     5     6 1   
    11     5    13 1   
    12     6     7 2   
    13     6     8 1   
    14     8     9 2   
    15     8    22 1   
    16     9    23 1   
    17    10    12 1   
    18    10    19 1   
    19    10    24 1   
    20    12    16 1   
    21    12    25 1   
    22    12    26 1   
    23    13    14 1   
    24    13    27 1   
    25    13    37 1   
    26    14    38 1   
    27    16    17 1   
    28    16    18 1   
    29    16    28 1   
    30    17    29 1   
    31    18    19 1   
    32    18    20 1   
    33    18    30 1   
    34    20    21 1   
    35    20    31 1   
    36    20    32 1   
    37    22    33 1   
    38    22    34 1   
    39    22    35 1   
@<TRIPOS>SUBSTRUCTURE
     1 MDU         1 TEMP              0 ****  ****    0 ROOT
