@<TRIPOS>MOLECULE
ME6
   36    37     1     0     0
SMALL
abcg2


@<TRIPOS>ATOM
      1 O2          -8.7310     9.7430    -1.5810 o          1 ME6      -0.507000
      2 C2          -8.1740     8.6790    -1.6990 c          1 ME6       0.672000
      3 N3          -8.8960     7.4910    -1.7770 n          1 ME6      -0.264400
      4 C20        -10.3500     7.5820    -1.8270 c3         1 ME6       0.067300
      5 C4          -8.3030     6.2840    -1.9150 cc         1 ME6       0.480400
      6 N4          -9.0420     5.2020    -2.0710 nv         1 ME6      -0.597800
      7 C5          -6.9050     6.2100    -1.8610 cc         1 ME6      -0.487600
      8 C6          -6.2020     7.3620    -1.7900 cd         1 ME6       0.182600
      9 N1          -6.7950     8.5610    -1.6630 n          1 ME6      -0.266000
     10 C1          -6.0710     9.8470    -1.5630 c5         1 ME6       0.351700
     11 O4          -6.3350    10.6270    -2.6880 os         1 ME6      -0.383000
     12 C7          -4.5500     9.7470    -1.4500 c5         1 ME6      -0.173400
     13 C3          -4.0970    10.9960    -2.2080 c5         1 ME6       0.127300
     14 O3          -4.2270    12.1720    -1.4460 oh         1 ME6      -0.714000
     15 C8          -5.1320    11.0280    -3.3240 c5         1 ME6       0.127300
     16 C9          -4.7480    10.1080    -4.4870 c3         1 ME6       0.230600
     17 O5          -5.8400     9.7390    -5.2620 os         1 ME6      -0.563400
     18 P           -6.4810     8.1370    -5.1880 p5         1 ME6       1.280900
     19 O3P         -5.4090     7.3370    -4.4440 o          1 ME6      -0.911167
     20 O2P         -6.6270     7.8000    -6.6670 o          1 ME6      -0.911167
     21 H20        -10.7930     6.9650    -1.0470 h1         1 ME6       0.062367
     22 H20A       -10.6520     8.6070    -1.6620 h1         1 ME6       0.062367
     23 H20B       -10.7170     7.2650    -2.8040 h1         1 ME6       0.062367
     24 HN4         -8.5930     4.3060    -2.1630 hn         1 ME6       0.347500
     25 H5          -6.4040     5.2590    -1.9480 ha         1 ME6       0.220000
     26 H6          -5.1280     7.3300    -1.7480 h4         1 ME6       0.234000
     27 H1          -6.4780    10.3410    -0.6780 h2         1 ME6       0.067700
     28 H2          -4.2100     9.7130    -0.4150 hc         1 ME6       0.067200
     29 H2'A        -4.1360     8.8810    -1.9620 hc         1 ME6       0.067200
     30 H3          -3.0770    10.8760    -2.5950 h1         1 ME6       0.053700
     31 HO3         -3.6500    12.1030    -0.6780 ho         1 ME6       0.483000
     32 H4          -5.2930    12.0460    -3.6920 h1         1 ME6       0.085700
     33 H7          -4.0240    10.6680    -5.0980 h1         1 ME6       0.004200
     34 H5'A        -4.2160     9.2260    -4.1170 h1         1 ME6       0.004200
     35 O1P         -7.8130     8.2600    -4.4510 o          1 ME6      -0.911167
     36 H17        -10.0480     5.2050    -2.1060 hn         1 ME6       0.347500
@<TRIPOS>BOND
     1     1     2 2   
     2     2     3 1   
     3     2     9 1   
     4     3     4 1   
     5     3     5 2   
     6     4    21 1   
     7     4    22 1   
     8     4    23 1   
     9     5     6 1   
    10     5     7 1   
    11     6    24 1   
    12     6    36 1   
    13     7     8 2   
    14     7    25 1   
    15     8     9 1   
    16     8    26 1   
    17     9    10 1   
    18    10    11 1   
    19    10    12 1   
    20    10    27 1   
    21    11    15 1   
    22    12    13 1   
    23    12    28 1   
    24    12    29 1   
    25    13    14 1   
    26    13    15 1   
    27    13    30 1   
    28    14    31 1   
    29    15    16 1   
    30    15    32 1   
    31    16    17 1   
    32    16    33 1   
    33    16    34 1   
    34    17    18 1   
    35    18    19 1   
    36    18    20 1   
    37    18    35 1   
@<TRIPOS>SUBSTRUCTURE
     1 ME6         1 TEMP              0 ****  ****    0 ROOT
