@<TRIPOS>MOLECULE
MGT
   49    51     1     0     0
SMALL
abcg2


@<TRIPOS>ATOM
      1 PG           1.2040     1.9240     5.9810 p5         1 MGT       1.360900
      2 O1G          2.6420     2.1430     5.5360 o          1 MGT      -0.934167
      3 O2G          0.4260     3.2020     6.2630 o          1 MGT      -0.934167
      4 O3G          1.0030     0.8100     6.9970 o          1 MGT      -0.934167
      5 O3B          0.4290     1.3470     4.5470 os         1 MGT      -0.721800
      6 PB          -0.0710    -0.1660     4.3430 p5         1 MGT       1.532800
      7 O1B          1.0440    -1.1650     4.4290 o          1 MGT      -0.906500
      8 O2B         -1.3630    -0.4210     5.0640 o          1 MGT      -0.906500
      9 O3A         -0.4460     0.0360     2.7220 os         1 MGT      -0.689800
     10 PA          -0.3650    -1.1560     1.6210 p5         1 MGT       1.447800
     11 O1A          1.0020    -1.2400     1.0120 o          1 MGT      -0.876000
     12 O2A         -1.0440    -2.4040     2.0990 o          1 MGT      -0.876000
     13 O5          -1.3680    -0.3780     0.5560 os         1 MGT      -0.540400
     14 C5          -1.6530    -1.0560    -0.6440 c3         1 MGT       0.234600
     15 C4          -2.2530    -0.1000    -1.6460 c5         1 MGT       0.170300
     16 O4          -1.2820     0.8350    -2.0720 os         1 MGT      -0.402000
     17 C3          -2.7130    -0.8180    -2.9120 c5         1 MGT       0.078300
     18 O3          -4.0370    -1.2680    -2.7640 oh         1 MGT      -0.707000
     19 C2          -2.5580     0.2610    -3.9930 c5         1 MGT       0.099300
     20 O2          -3.7330     1.0270    -4.0970 oh         1 MGT      -0.736000
     21 C1          -1.4470     1.1670    -3.4390 c5         1 MGT       0.451500
     22 N9          -0.2000     1.1140    -4.1320 nh         1 MGT      -0.685400
     23 C8           0.7000     2.2800    -4.1180 c5         1 MGT       0.433000
     24 N7           1.8970     1.8470    -4.8210 nh         1 MGT      -0.522400
     25 CM7          1.8930     2.1800    -6.2420 c3         1 MGT       0.143100
     26 C7           1.8750     0.4400    -4.6060 cc         1 MGT      -0.277200
     27 C6           2.8910    -0.5020    -4.8210 c          1 MGT       0.630200
     28 O6           4.0510    -0.3280    -5.1860 o          1 MGT      -0.610000
     29 N1           2.4320    -1.8120    -4.5670 ns         1 MGT      -0.444400
     30 C10          1.1730    -2.1360    -4.1890 cc         1 MGT       0.728800
     31 N2           0.9000    -3.4240    -3.9570 nv         1 MGT      -1.049200
     32 N3           0.2270    -1.2350    -4.0190 nd         1 MGT      -0.706300
     33 C9           0.6150     0.0230    -4.2360 cd         1 MGT       0.428600
     34 H5'1        -2.3720    -1.8670    -0.4780 h1         1 MGT       0.007200
     35 H5'2        -0.7500    -1.4980    -1.0850 h1         1 MGT       0.007200
     36 H4          -3.1110     0.4180    -1.1930 h1         1 MGT       0.071700
     37 H3          -2.0300    -1.6410    -3.1330 h1         1 MGT       0.071700
     38 HO3         -4.1730    -2.0200    -3.3480 ho         1 MGT       0.476000
     39 H2          -2.2790    -0.1650    -4.9640 h1         1 MGT       0.036700
     40 HO2         -4.4690     0.4410    -3.8770 ho         1 MGT       0.510000
     41 H1          -1.7830     2.2050    -3.5290 h2         1 MGT       0.062700
     42 H81          0.9480     2.5470    -3.0830 h2         1 MGT       0.069700
     43 H82          0.2400     3.1400    -4.6030 h2         1 MGT       0.069700
     44 HM71         2.8120     1.8130    -6.6960 h1         1 MGT       0.016367
     45 HM72         1.0450     1.7500    -6.7900 h1         1 MGT       0.016367
     46 HM73         1.8730     3.2630    -6.3660 h1         1 MGT       0.016367
     47 HN1          3.1150    -2.5500    -4.6770 hn         1 MGT       0.303500
     48 HN21        -0.0530    -3.6850    -3.7700 hn         1 MGT       0.493500
     49 HN22         1.5390    -4.1570    -4.2080 hn         1 MGT       0.493500
@<TRIPOS>BOND
     1     1     2 1   
     2     1     3 1   
     3     1     4 1   
     4     1     5 1   
     5     5     6 1   
     6     6     7 1   
     7     6     8 1   
     8     6     9 1   
     9     9    10 1   
    10    10    11 1   
    11    10    12 1   
    12    10    13 1   
    13    13    14 1   
    14    14    15 1   
    15    14    34 1   
    16    14    35 1   
    17    15    16 1   
    18    15    17 1   
    19    15    36 1   
    20    16    21 1   
    21    17    18 1   
    22    17    19 1   
    23    17    37 1   
    24    18    38 1   
    25    19    20 1   
    26    19    21 1   
    27    19    39 1   
    28    20    40 1   
    29    21    22 1   
    30    21    41 1   
    31    22    23 1   
    32    22    33 1   
    33    23    24 1   
    34    23    42 1   
    35    23    43 1   
    36    24    25 1   
    37    24    26 1   
    38    25    44 1   
    39    25    45 1   
    40    25    46 1   
    41    26    27 1   
    42    26    33 2   
    43    27    28 2   
    44    27    29 1   
    45    29    30 1   
    46    29    47 1   
    47    30    31 1   
    48    30    32 2   
    49    31    48 1   
    50    31    49 1   
    51    32    33 1   
@<TRIPOS>SUBSTRUCTURE
     1 MGT         1 TEMP              0 ****  ****    0 ROOT
