@<TRIPOS>MOLECULE
MGV
   50    53     1     0     0
SMALL
abcg2


@<TRIPOS>ATOM
      1 CAK         17.0580     5.9060    19.1180 ca         1 MGV      -0.052000
      2 CAI         16.8590     6.2210    20.4540 ca         1 MGV      -0.164000
      3 CAU         17.9600     6.5050    21.2400 ca         1 MGV       0.167000
      4 FAH         17.7750     6.8020    22.5350 f          1 MGV      -0.192000
      5 CAJ         19.2450     6.4990    20.7330 ca         1 MGV      -0.164000
      6 CAL         19.4270     6.1810    19.3940 ca         1 MGV      -0.052000
      7 CAV         18.3430     5.8760    18.5790 ca         1 MGV      -0.164300
      8 CAO         18.5400     5.4950    17.1360 c3         1 MGV       0.120900
      9 N7          18.5970     4.0420    16.9710 na         1 MGV       0.012300
     10 C8          17.5330     3.2990    16.7180 cc         1 MGV       0.026700
     11 C5          19.6890     3.2180    17.1670 cc         1 MGV      -0.354600
     12 C6          21.0780     3.4590    17.3790 c          1 MGV       0.633600
     13 O6          21.6650     4.5200    17.4830 o          1 MGV      -0.530000
     14 N1          21.7670     2.2460    17.4510 ns         1 MGV      -0.452400
     15 C2          21.2310     0.9990    17.3010 cc         1 MGV       0.746800
     16 N2          22.0530    -0.0420    17.3850 nv         1 MGV      -1.059200
     17 N3          19.9490     0.8010    17.0760 nd         1 MGV      -0.696100
     18 C4          19.2430     1.9280    17.0150 cd         1 MGV       0.165400
     19 N9          17.9000     2.0080    16.7500 na         1 MGV      -0.021000
     20 C1          17.0400     0.8410    16.5170 c5         1 MGV       0.284300
     21 O4          15.8070     1.2780    16.0530 os         1 MGV      -0.414000
     22 C9          16.7960     0.0620    17.8200 c5         1 MGV       0.085300
     23 O2          16.7060    -1.3220    17.6160 oh         1 MGV      -0.715000
     24 C3          15.4770     0.6930    18.2880 c5         1 MGV       0.108300
     25 O3          14.7580    -0.0450    19.2270 oh         1 MGV      -0.675000
     26 C10         14.7550     0.9330    16.9630 c5         1 MGV       0.098300
     27 C7          13.6610     1.9800    16.9770 c3         1 MGV       0.250600
     28 O5          14.0400     3.1770    17.5790 os         1 MGV      -0.598400
     29 P           14.0050     4.6420    16.7030 p5         1 MGV       1.288900
     30 OP3         13.9300     5.6660    17.8230 o          1 MGV      -0.861500
     31 OP2         15.3550     4.6550    15.9450 o          1 MGV      -0.861500
     32 OP1         12.8030     4.5490    15.7810 o          1 MGV      -0.861500
     33 HAK         16.1900     5.7010    18.4990 ha         1 MGV       0.163000
     34 HAI         15.8620     6.2470    20.8730 ha         1 MGV       0.136000
     35 HAJ         20.0890     6.7370    21.3680 ha         1 MGV       0.136000
     36 HAL         20.4290     6.1730    18.9860 ha         1 MGV       0.163000
     37 HAO1        17.7050     5.8400    16.5280 h1         1 MGV       0.103700
     38 HAO2        19.4550     5.9180    16.7270 h1         1 MGV       0.103700
     39 H8          16.5190     3.7560    16.4550 h5         1 MGV       0.339000
     40 H1          22.7650     2.3300    17.6120 hn         1 MGV       0.323500
     41 H2N1        21.6790    -0.9690    17.2730 hn         1 MGV       0.513500
     42 H2N2        23.0410     0.0520    17.5480 hn         1 MGV       0.513500
     43 H6          17.5490     0.2250    15.7700 h2         1 MGV       0.088700
     44 H2          17.6040     0.2090    18.5380 h1         1 MGV       0.103700
     45 H4          14.2850    -0.0030    16.6210 h1         1 MGV       0.018700
     46 HA          16.0920    -1.5340    16.9020 ho         1 MGV       0.506000
     47 H3          15.6980     1.6590    18.7510 h1         1 MGV       0.131700
     48 HO3         14.6850    -0.9550    18.9180 ho         1 MGV       0.490000
     49 H5'1        13.2950     2.1200    15.9540 h1         1 MGV       0.033200
     50 H5'2        12.8280     1.5270    17.5320 h1         1 MGV       0.033200
@<TRIPOS>BOND
     1     1     2 ar  
     2     1     7 ar  
     3     1    33 1   
     4     2     3 ar  
     5     2    34 1   
     6     3     4 1   
     7     3     5 ar  
     8     5     6 ar  
     9     5    35 1   
    10     6     7 ar  
    11     6    36 1   
    12     7     8 1   
    13     8     9 1   
    14     8    37 1   
    15     8    38 1   
    16     9    10 2   
    17     9    11 1   
    18    10    19 1   
    19    10    39 1   
    20    11    12 1   
    21    11    18 2   
    22    12    13 2   
    23    12    14 1   
    24    14    15 1   
    25    14    40 1   
    26    15    16 1   
    27    15    17 2   
    28    16    41 1   
    29    16    42 1   
    30    17    18 1   
    31    18    19 1   
    32    19    20 1   
    33    20    21 1   
    34    20    22 1   
    35    20    43 1   
    36    21    26 1   
    37    22    23 1   
    38    22    24 1   
    39    22    44 1   
    40    23    46 1   
    41    24    25 1   
    42    24    26 1   
    43    24    47 1   
    44    25    48 1   
    45    26    27 1   
    46    26    45 1   
    47    27    28 1   
    48    27    49 1   
    49    27    50 1   
    50    28    29 1   
    51    29    30 1   
    52    29    31 1   
    53    29    32 1   
@<TRIPOS>SUBSTRUCTURE
     1 MGV         1 TEMP              0 ****  ****    0 ROOT
