@<TRIPOS>MOLECULE
MMX
   43    44     1     0     0
SMALL
abcg2


@<TRIPOS>ATOM
      1 C1         364.2150   226.2980   386.5280 c5         1 MMX       0.322700
      2 C2         364.8330   228.5360   387.2510 c          1 MMX       0.615000
      3 C7         362.6680   226.4250   386.6370 c5         1 MMX       0.070300
      4 C3         362.2530   226.6890   385.1810 c5         1 MMX       0.158300
      5 C4         366.7350   228.8820   388.8530 c6         1 MMX       0.360900
      6 C8         363.4010   226.0570   384.4010 c5         1 MMX       0.156300
      7 C5         367.1630   227.4980   388.4050 c6         1 MMX      -0.143400
      8 C9         363.5590   226.4940   382.9610 c3         1 MMX       0.264600
      9 C6         365.9650   226.5960   388.2570 c6         1 MMX       0.130000
     10 N1         365.0350   227.1820   387.3080 n          1 MMX      -0.431800
     11 N3         365.6210   229.3380   388.0260 n          1 MMX      -0.441800
     12 N4         367.7960   229.8630   388.8210 n8         1 MMX      -1.016200
     13 O2         363.9540   229.0130   386.5400 o          1 MMX      -0.522000
     14 O1         362.0960   225.2100   387.0620 oh         1 MMX      -0.705000
     15 O3         361.0320   226.1300   384.7840 oh         1 MMX      -0.682000
     16 O4         364.5450   226.3980   385.1610 os         1 MMX      -0.420000
     17 O5         363.6810   227.8740   382.8420 os         1 MMX      -0.568400
     18 OP1        361.4850   228.3060   381.5790 o          1 MMX      -0.924833
     19 OP2        363.3690   230.0550   381.6540 o          1 MMX      -0.924833
     20 P          362.9790   228.5980   381.4480 p5         1 MMX       1.267900
     21 C31        365.1850   230.7180   388.2080 c3         1 MMX       0.138000
     22 C32        365.6520   231.6740   387.1220 c3         1 MMX      -0.107100
     23 OP3        363.6580   227.8940   380.2750 o          1 MMX      -0.924833
     24 H1         364.4610   225.2900   386.8860 h2         1 MMX       0.007700
     25 H2         362.3740   227.2400   387.3040 h1         1 MMX       0.042700
     26 H3         362.2740   227.7690   385.0130 h1         1 MMX       0.126700
     27 H4         366.3980   228.8240   389.8960 h2         1 MMX       0.026700
     28 H5         363.2580   224.9620   384.3940 h1         1 MMX       0.005700
     29 H6         367.8590   227.0870   389.1370 hc         1 MMX       0.052700
     30 H7         367.6920   227.5650   387.4490 hc         1 MMX       0.052700
     31 H8         362.6850   226.0970   382.4280 h1         1 MMX       0.005200
     32 H9         364.4300   225.9690   382.5400 h1         1 MMX       0.005200
     33 H10        365.4870   226.4310   389.2300 h1         1 MMX       0.028200
     34 H11        366.2750   225.6210   387.8850 h1         1 MMX       0.028200
     35 H12        368.4390   229.6840   389.5820 hn         1 MMX       0.398500
     36 H13        368.3270   229.7790   387.9620 hn         1 MMX       0.398500
     37 H15        362.3270   225.0810   387.9870 ho         1 MMX       0.463000
     38 H16        360.3190   226.6560   385.1570 ho         1 MMX       0.489000
     39 H18        365.5640   231.0510   389.1730 h1         1 MMX       0.031200
     40 H19        364.0970   230.7420   388.2780 h1         1 MMX       0.031200
     41 H20        365.2910   232.6820   387.3320 hc         1 MMX       0.045033
     42 H21        366.7390   231.7090   387.0720 hc         1 MMX       0.045033
     43 H22        365.2700   231.3810   386.1460 hc         1 MMX       0.045033
@<TRIPOS>BOND
     1     1     3 1   
     2     1    10 1   
     3     1    16 1   
     4     1    24 1   
     5     2    10 1   
     6     2    11 1   
     7     2    13 2   
     8     3     4 1   
     9     3    14 1   
    10     3    25 1   
    11     4     6 1   
    12     4    15 1   
    13     4    26 1   
    14     5     7 1   
    15     5    11 1   
    16     5    12 1   
    17     5    27 1   
    18     6     8 1   
    19     6    16 1   
    20     6    28 1   
    21     7     9 1   
    22     7    29 1   
    23     7    30 1   
    24     8    17 1   
    25     8    31 1   
    26     8    32 1   
    27     9    10 1   
    28     9    33 1   
    29     9    34 1   
    30    11    21 1   
    31    12    35 1   
    32    12    36 1   
    33    14    37 1   
    34    15    38 1   
    35    17    20 1   
    36    18    20 1   
    37    19    20 1   
    38    20    23 1   
    39    21    22 1   
    40    21    39 1   
    41    21    40 1   
    42    22    41 1   
    43    22    42 1   
    44    22    43 1   
@<TRIPOS>SUBSTRUCTURE
     1 MMX         1 TEMP              0 ****  ****    0 ROOT
