@<TRIPOS>MOLECULE
MRU
   26    25     1     0     0
SMALL
abcg2


@<TRIPOS>ATOM
      1 O3P         45.3910     2.8200   -14.3890 o          1 MRU      -0.914167
      2 P1          43.9360     2.5830   -14.0380 p5         1 MRU       1.265900
      3 O1P         42.9300     3.3150   -14.9090 o          1 MRU      -0.914167
      4 O2P         43.5640     1.1400   -13.7450 o          1 MRU      -0.914167
      5 O1          43.8360     3.3730   -12.5200 os         1 MRU      -0.583400
      6 C1          42.5940     3.3820   -11.8510 c3         1 MRU       0.142600
      7 C2          42.4710     2.3730   -10.7200 c          1 MRU       0.539100
      8 O2          41.4640     2.3540   -10.0440 o          1 MRU      -0.611100
      9 C3          43.6080     1.3740   -10.5020 c3         1 MRU       0.015300
     10 O3          43.1820     0.2570    -9.7380 oh         1 MRU      -0.689000
     11 C4          44.7820     2.0010    -9.7190 c3         1 MRU       0.227300
     12 O4          45.1700     3.2670   -10.2260 oh         1 MRU      -0.721000
     13 C5          45.9740     1.0520    -9.6090 c3         1 MRU       0.027600
     14 S1          46.6560     0.5730   -11.2340 ss         1 MRU      -0.296000
     15 C6          48.1140    -0.3430   -10.6630 c3         1 MRU       0.001900
     16 H11         42.4270     4.3700   -11.4140 h1         1 MRU       0.036200
     17 H12         41.7690     3.1910   -12.5410 h1         1 MRU       0.036200
     18 H3          43.9380     1.0650   -11.4970 h1         1 MRU       0.157700
     19 HO3         42.5060    -0.2160   -10.2330 ho         1 MRU       0.446000
     20 H4          44.4200     2.1620    -8.7000 h1         1 MRU       0.029700
     21 HO4         44.9320     3.3210   -11.1750 ho         1 MRU       0.533000
     22 H51         46.7590     1.5570    -9.0470 h1         1 MRU       0.038700
     23 H52         45.6820     0.1520    -9.0710 h1         1 MRU       0.038700
     24 H61         48.6320    -0.7010   -11.5500 h1         1 MRU       0.036033
     25 H62         48.7780     0.3090   -10.0970 h1         1 MRU       0.036033
     26 H63         47.8190    -1.1930   -10.0510 h1         1 MRU       0.036033
@<TRIPOS>BOND
     1     1     2 1   
     2     2     3 1   
     3     2     4 1   
     4     2     5 1   
     5     5     6 1   
     6     6     7 1   
     7     6    16 1   
     8     6    17 1   
     9     7     8 2   
    10     7     9 1   
    11     9    10 1   
    12     9    11 1   
    13     9    18 1   
    14    10    19 1   
    15    11    12 1   
    16    11    13 1   
    17    11    20 1   
    18    12    21 1   
    19    13    14 1   
    20    13    22 1   
    21    13    23 1   
    22    14    15 1   
    23    15    24 1   
    24    15    25 1   
    25    15    26 1   
@<TRIPOS>SUBSTRUCTURE
     1 MRU         1 TEMP              0 ****  ****    0 ROOT
