@<TRIPOS>MOLECULE
MTR
   34    35     1     0     0
SMALL
abcg2


@<TRIPOS>ATOM
      1 P           -0.6940    -5.1930    -3.3090 p5         1 MTR       1.282900
      2 OP1         -0.9330    -5.0740    -4.8060 o          1 MTR      -0.921500
      3 OP2         -1.5750    -4.2840    -2.4420 o          1 MTR      -0.921500
      4 O5           0.8790    -4.5260    -3.1800 os         1 MTR      -0.571400
      5 C1           0.2050    -1.0270    -0.4780 cc         1 MTR      -0.276200
      6 C6          -0.0710     0.1150     0.3150 cc         1 MTR      -0.063000
      7 C2          -0.8580    -1.6960    -0.9940 cd         1 MTR       0.059600
      8 N3          -2.1170    -1.2640    -0.7380 ns         1 MTR      -0.335100
      9 C4          -2.4640    -0.1770     0.0300 c          1 MTR       0.543200
     10 O4          -3.6470     0.1220     0.2030 o          1 MTR      -0.633000
     11 C5          -1.3380     0.5440     0.5800 cd         1 MTR      -0.294400
     12 C5M         -1.6320     1.7460     1.4180 c3         1 MTR      -0.004900
     13 C8           2.1000    -2.4970     0.3660 c5         1 MTR      -0.106400
     14 C10          1.5000    -4.5670    -1.9350 c3         1 MTR       0.244600
     15 C9           2.4470    -3.3860    -1.7880 c5         1 MTR       0.114300
     16 O1           1.7590    -2.1510    -1.9300 os         1 MTR      -0.427000
     17 C7           1.6210    -1.4900    -0.6850 c5         1 MTR       0.249500
     18 C3           3.1030    -3.3360    -0.4060 c5         1 MTR       0.120300
     19 O3           4.3360    -2.6490    -0.4130 oh         1 MTR      -0.743000
     20 OP3         -0.5650    -6.6130    -2.7680 o          1 MTR      -0.921500
     21 H6           0.7640     0.6720     0.7290 ha         1 MTR       0.152000
     22 H2          -0.8090    -2.5920    -1.6100 h4         1 MTR       0.335000
     23 H3          -2.8800    -1.7900    -1.1450 hn         1 MTR       0.358500
     24 H71         -2.1890     2.4990     0.8570 hc         1 MTR       0.019700
     25 H72         -0.7140     2.2070     1.7770 hc         1 MTR       0.019700
     26 H73         -2.2410     1.4880     2.2860 hc         1 MTR       0.019700
     27 H8           2.5290    -2.0180     1.2460 hc         1 MTR       0.053700
     28 H2'          1.2710    -3.1230     0.7020 hc         1 MTR       0.053700
     29 H5           0.7760    -4.5500    -1.1060 h1         1 MTR      -0.008800
     30 H5'          2.0940    -5.4860    -1.8040 h1         1 MTR      -0.008800
     31 H4           3.2060    -3.4460    -2.5790 h1         1 MTR       0.051700
     32 H1           2.2760    -0.6080    -0.6680 h1         1 MTR       0.023700
     33 H9           3.2130    -4.3410     0.0220 h1         1 MTR       0.042700
     34 HO3          4.9390    -3.1130    -1.0040 ho         1 MTR       0.491000
@<TRIPOS>BOND
     1     1     2 1   
     2     1     3 1   
     3     1     4 1   
     4     1    20 1   
     5     4    14 1   
     6     5     6 1   
     7     5     7 2   
     8     5    17 1   
     9     6    11 2   
    10     6    21 1   
    11     7     8 1   
    12     7    22 1   
    13     8     9 1   
    14     8    23 1   
    15     9    10 2   
    16     9    11 1   
    17    11    12 1   
    18    12    24 1   
    19    12    25 1   
    20    12    26 1   
    21    13    17 1   
    22    13    18 1   
    23    13    27 1   
    24    13    28 1   
    25    14    15 1   
    26    14    29 1   
    27    14    30 1   
    28    15    16 1   
    29    15    18 1   
    30    15    31 1   
    31    16    17 1   
    32    17    32 1   
    33    18    19 1   
    34    18    33 1   
    35    19    34 1   
@<TRIPOS>SUBSTRUCTURE
     1 MTR         1 TEMP              0 ****  ****    0 ROOT
