@<TRIPOS>MOLECULE
MYM
   93    96     1     0     0
SMALL
abcg2


@<TRIPOS>ATOM
      1 C10          1.1250    -1.5770     0.0090 c3         1 MYM       0.046600
      2 C13         -3.4090    -1.8360     1.4010 c3         1 MYM      -0.176400
      3 C15         -7.0970    -1.5550     1.3050 c          1 MYM       0.570100
      4 C17         -8.2750     0.7340     1.4480 c3         1 MYM      -0.076000
      5 C20         -8.8850     0.5940     0.0470 c3         1 MYM       0.244600
      6 C21          4.5180    -0.7400    -3.2580 c3         1 MYM      -0.092100
      7 C22          5.3720    -2.5350    -1.7860 c6         1 MYM      -0.069400
      8 C24          7.0890    -2.0600    -0.0260 c6         1 MYM      -0.074400
      9 C26          5.6610    -0.4410     1.2160 c3         1 MYM      -0.087100
     10 C28          8.7440    -0.0760     1.5300 c6         1 MYM      -0.062400
     11 O04        -11.3120     1.2350    -1.7130 o          1 MYM      -0.926833
     12 P01         -9.9700     1.9080    -1.9800 p5         1 MYM       1.273900
     13 O05         -9.0790     1.1430    -2.9540 o          1 MYM      -0.926833
     14 O06        -10.0410     3.4120    -2.2120 o          1 MYM      -0.926833
     15 O03         -9.1410     1.8570    -0.4920 os         1 MYM      -0.588400
     16 C18         -6.9410     1.4780     1.3570 c3         1 MYM      -0.063600
     17 C19         -9.2140     1.5230     2.3630 c3         1 MYM      -0.063600
     18 C16         -8.0520    -0.6600     2.0970 c3         1 MYM       0.112300
     19 O02         -9.2480    -1.3670     2.2970 oh         1 MYM      -0.669000
     20 O07         -7.5280    -2.3180     0.4480 o          1 MYM      -0.595100
     21 N02         -5.7980    -1.4620     1.6010 ns         1 MYM      -0.517900
     22 C14         -4.7880    -2.2400     0.9120 c3         1 MYM       0.120000
     23 C12         -2.3060    -2.5940     0.6910 c          1 MYM       0.605100
     24 O08         -2.5230    -3.5870     0.0130 o          1 MYM      -0.591100
     25 N01         -1.0760    -2.0790     0.8690 ns         1 MYM      -0.518900
     26 C11          0.1250    -2.6770     0.3320 c3         1 MYM       0.113000
     27 S01          2.6120    -2.3290    -0.7020 ss         1 MYM      -0.389600
     28 C09          3.5670    -0.8640    -1.0430 c          1 MYM       0.628700
     29 O09          3.1220     0.2210    -0.7700 o          1 MYM      -0.511100
     30 C08          4.8740    -1.0800    -1.7980 c6         1 MYM      -0.114000
     31 C07          6.0370    -0.1730    -1.3020 c6         1 MYM      -0.030700
     32 C06          5.8040     1.3370    -1.3680 c6         1 MYM      -0.106400
     33 C05          7.1250     2.0820    -1.2320 c6         1 MYM       0.181300
     34 O01          6.9500     3.4790    -1.3570 oh         1 MYM      -0.659000
     35 C23          5.9740    -2.9950    -0.4670 c6         1 MYM      -0.075400
     36 C25          6.6540    -0.5860     0.0590 c6         1 MYM      -0.024000
     37 C27          7.9500     0.2520     0.2430 c6         1 MYM      -0.045700
     38 C29          9.1170     1.2080     2.2750 c6         1 MYM      -0.031500
     39 C30          7.8190     1.9560     2.6050 c6         1 MYM      -0.068400
     40 C31          7.1620     2.4580     1.3040 c6         1 MYM      -0.057400
     41 C04          7.8280     1.7870     0.0910 c6         1 MYM      -0.029000
     42 C03          9.2680     2.3300     0.0530 c6         1 MYM      -0.039200
     43 C02          9.9530     2.0690     1.3740 c2         1 MYM      -0.095400
     44 C01         11.1470     2.5510     1.7040 c2         1 MYM      -0.339000
     45 H1           0.6960    -0.8750    -0.7050 h1         1 MYM       0.079200
     46 H2           1.4050    -1.0300     0.9110 h1         1 MYM       0.079200
     47 H3          -3.2590    -0.7620     1.2640 hc         1 MYM       0.058200
     48 H4          -3.3190    -2.0270     2.4760 hc         1 MYM       0.058200
     49 H5          -8.1920     0.0340    -0.5950 h1         1 MYM       0.011700
     50 H6          -9.8120     0.0050     0.1030 h1         1 MYM       0.011700
     51 H7           3.7760    -1.4390    -3.6480 hc         1 MYM       0.047033
     52 H8           4.1150     0.2640    -3.3750 hc         1 MYM       0.047033
     53 H9           5.4130    -0.8240    -3.8770 hc         1 MYM       0.047033
     54 H10          4.5840    -3.2160    -2.1200 hc         1 MYM       0.050200
     55 H11          6.1460    -2.6030    -2.5580 hc         1 MYM       0.050200
     56 H12          7.4850    -2.3860     0.9400 hc         1 MYM       0.037200
     57 H13          7.9170    -2.1430    -0.7400 hc         1 MYM       0.037200
     58 H14          6.1530    -0.5810     2.1790 hc         1 MYM       0.038700
     59 H15          5.1660     0.5270     1.2400 hc         1 MYM       0.038700
     60 H16          4.8750    -1.1950     1.1720 hc         1 MYM       0.038700
     61 H17          8.1580    -0.6990     2.2100 hc         1 MYM       0.040700
     62 H18          9.6400    -0.6520     1.2890 hc         1 MYM       0.040700
     63 H21         -6.2540     1.0140     0.6470 hc         1 MYM       0.023200
     64 H22         -7.1000     2.5060     1.0330 hc         1 MYM       0.023200
     65 H23         -6.4390     1.5180     2.3290 hc         1 MYM       0.023200
     66 H24         -8.7670     1.6640     3.3500 hc         1 MYM       0.023200
     67 H25         -9.4160     2.5080     1.9460 hc         1 MYM       0.023200
     68 H26        -10.1690     1.0150     2.5000 hc         1 MYM       0.023200
     69 H27         -7.6250    -0.4770     3.0910 h1         1 MYM       0.029700
     70 H28         -9.4490    -1.8350     1.4770 ho         1 MYM       0.477000
     71 H29         -5.5150    -0.8760     2.3710 hn         1 MYM       0.304500
     72 H30         -4.8710    -2.0710    -0.1630 h1         1 MYM       0.066700
     73 H31         -4.9530    -3.3050     1.0840 h1         1 MYM       0.066700
     74 H32         -0.9670    -1.3170     1.5190 hn         1 MYM       0.309500
     75 H33         -0.1380    -3.2250    -0.5720 h1         1 MYM       0.061700
     76 H34          0.5590    -3.3950     1.0340 h1         1 MYM       0.061700
     77 H35          6.8220    -0.3800    -2.0470 hc         1 MYM       0.038700
     78 H36          5.3610     1.6060    -2.3300 hc         1 MYM       0.061200
     79 H37          5.1090     1.6770    -0.6000 hc         1 MYM       0.061200
     80 H38          7.7900     1.7150    -2.0320 h1         1 MYM       0.018700
     81 H39          6.5800     3.6570    -2.2260 ho         1 MYM       0.442000
     82 H40          5.2050    -3.0760     0.3050 hc         1 MYM       0.048700
     83 H41          6.3740    -4.0040    -0.5910 hc         1 MYM       0.048700
     84 H42          8.5790    -0.0510    -0.6060 hc         1 MYM       0.035700
     85 H43          9.6580     0.9660     3.1930 hc         1 MYM       0.050700
     86 H44          7.1530     1.2720     3.1380 hc         1 MYM       0.040200
     87 H45          8.0180     2.7870     3.2840 hc         1 MYM       0.040200
     88 H46          6.0840     2.2960     1.3340 hc         1 MYM       0.053700
     89 H47          7.2960     3.5380     1.2140 hc         1 MYM       0.053700
     90 H48          9.8200     1.8530    -0.7650 hc         1 MYM       0.053200
     91 H49          9.2610     3.4010    -0.1660 hc         1 MYM       0.053200
     92 H51         11.6020     2.3310     2.6620 ha         1 MYM       0.159500
     93 H52         11.7150     3.1840     1.0310 ha         1 MYM       0.159500
@<TRIPOS>BOND
     1     1    26 1   
     2     1    27 1   
     3     1    45 1   
     4     1    46 1   
     5     2    22 1   
     6     2    23 1   
     7     2    47 1   
     8     2    48 1   
     9     3    18 1   
    10     3    20 2   
    11     3    21 1   
    12     4     5 1   
    13     4    16 1   
    14     4    17 1   
    15     4    18 1   
    16     5    15 1   
    17     5    49 1   
    18     5    50 1   
    19     6    30 1   
    20     6    51 1   
    21     6    52 1   
    22     6    53 1   
    23     7    30 1   
    24     7    35 1   
    25     7    54 1   
    26     7    55 1   
    27     8    35 1   
    28     8    36 1   
    29     8    56 1   
    30     8    57 1   
    31     9    36 1   
    32     9    58 1   
    33     9    59 1   
    34     9    60 1   
    35    10    37 1   
    36    10    38 1   
    37    10    61 1   
    38    10    62 1   
    39    11    12 1   
    40    12    13 1   
    41    12    14 1   
    42    12    15 1   
    43    16    63 1   
    44    16    64 1   
    45    16    65 1   
    46    17    66 1   
    47    17    67 1   
    48    17    68 1   
    49    18    19 1   
    50    18    69 1   
    51    19    70 1   
    52    21    22 1   
    53    21    71 1   
    54    22    72 1   
    55    22    73 1   
    56    23    24 2   
    57    23    25 1   
    58    25    26 1   
    59    25    74 1   
    60    26    75 1   
    61    26    76 1   
    62    27    28 1   
    63    28    29 2   
    64    28    30 1   
    65    30    31 1   
    66    31    32 1   
    67    31    36 1   
    68    31    77 1   
    69    32    33 1   
    70    32    78 1   
    71    32    79 1   
    72    33    34 1   
    73    33    41 1   
    74    33    80 1   
    75    34    81 1   
    76    35    82 1   
    77    35    83 1   
    78    36    37 1   
    79    37    41 1   
    80    37    84 1   
    81    38    39 1   
    82    38    43 1   
    83    38    85 1   
    84    39    40 1   
    85    39    86 1   
    86    39    87 1   
    87    40    41 1   
    88    40    88 1   
    89    40    89 1   
    90    41    42 1   
    91    42    43 1   
    92    42    90 1   
    93    42    91 1   
    94    43    44 2   
    95    44    92 1   
    96    44    93 1   
@<TRIPOS>SUBSTRUCTURE
     1 MYM         1 TEMP              0 ****  ****    0 ROOT
