@<TRIPOS>MOLECULE
B5M
   52    55     1     0     0
SMALL
abcg2


@<TRIPOS>ATOM
      1 C13        -12.6420    60.2220     0.4090 c5         1 B5M       0.111300
      2 C20         -8.1930    54.7960     2.5330 ca         1 B5M       0.017700
      3 C21         -7.5720    53.5550     2.5350 ca         1 B5M      -0.202000
      4 C22         -8.3100    52.3790     2.5590 ca         1 B5M      -0.058000
      5 C24        -10.3480    53.6520     2.5910 ca         1 B5M       0.227100
      6 C26         -7.2880    55.9960     2.5090 c3         1 B5M      -0.045800
      7 C02         -9.9860    66.2620     0.9350 ca         1 B5M       0.445900
      8 C03        -10.2230    64.8800     0.8080 ca         1 B5M      -0.093600
      9 C05        -10.2670    62.8070     0.4080 cc         1 B5M       0.431700
     10 C07        -11.3230    64.3840     1.4900 ca         1 B5M       0.113500
     11 C09        -11.8410    66.3590     2.2940 ca         1 B5M       0.170900
     12 C11        -12.3100    62.0940     1.7580 c5         1 B5M       0.276300
     13 C14        -13.4050    59.0110     0.9060 c3         1 B5M       0.226600
     14 C18        -10.2840    56.1840     2.5460 c          1 B5M       0.674700
     15 C19         -9.6100    54.8620     2.5590 ca         1 B5M      -0.239600
     16 C23         -9.6850    52.4220     2.5870 ca         1 B5M      -0.200000
     17 C30        -13.5370    61.3650    -0.1140 c5         1 B5M       0.140300
     18 C32        -13.6890    62.2650     1.1080 c5         1 B5M       0.138300
     19 N04         -9.5760    63.8770     0.1370 nd         1 B5M      -0.579100
     20 N06        -11.3420    63.0480     1.2190 na         1 B5M      -0.300300
     21 N08        -12.1680    65.0790     2.2510 nb         1 B5M      -0.220000
     22 N10        -10.8260    66.9750     1.6940 nb         1 B5M      -0.313000
     23 O12        -11.8890    60.8010     1.4770 os         1 B5M      -0.395000
     24 O15        -12.4710    58.0430     1.3670 os         1 B5M      -0.594400
     25 O27         -9.7260    57.2460     2.4520 o          1 B5M      -0.486000
     26 O31        -14.7790    60.9770    -0.6180 oh         1 B5M      -0.680000
     27 O33        -14.6990    61.7590     1.9320 oh         1 B5M      -0.677000
     28 P16        -12.7130    57.3950     2.8410 p5         1 B5M       1.411800
     29 H1         -11.9340    59.8970    -0.3620 h1         1 B5M       0.066700
     30 H3          -7.8030    51.4230     2.5580 ha         1 B5M       0.096000
     31 H4          -7.4260    56.6020     1.6150 hc         1 B5M       0.046033
     32 H5          -7.4440    56.6520     3.3640 hc         1 B5M       0.046033
     33 H6          -6.2510    55.6640     2.5280 hc         1 B5M       0.046033
     34 H7         -10.0340    61.8180     0.0470 h5         1 B5M       0.084800
     35 H8         -12.4820    66.9960     2.8960 h5         1 B5M       0.038100
     36 H9         -12.3470    62.2500     2.8400 h2         1 B5M       0.117700
     37 H10        -14.1170    59.3030     1.6820 h1         1 B5M       0.045700
     38 H11        -13.9790    58.5810     0.0830 h1         1 B5M       0.045700
     39 H12        -10.2720    51.5130     2.6100 ha         1 B5M       0.118000
     40 H13        -12.9650    61.9280    -0.8640 h1         1 B5M       0.032700
     41 H14        -13.8760    63.3080     0.8270 h1         1 B5M       0.062700
     42 H19        -14.6550    60.6380    -1.5100 ho         1 B5M       0.501000
     43 H20        -14.8100    62.3530     2.6820 ho         1 B5M       0.510000
     44 O25        -11.6800    53.5740     2.6210 oh         1 B5M      -0.556100
     45 N01         -8.9700    66.8790     0.3290 nv         1 B5M      -1.073900
     46 O17        -11.6200    56.0920     2.6400 os         1 B5M      -0.578500
     47 O28        -14.0370    56.7160     2.9030 o          1 B5M      -0.793000
     48 O29        -12.2170    58.2830     3.9250 o          1 B5M      -0.793000
     49 H2          -6.4910    53.5060     2.5180 ha         1 B5M       0.099000
     50 H15         -8.8180    67.8630     0.4710 hn         1 B5M       0.502000
     51 H17        -12.0530    54.4740     2.6410 ho         1 B5M       0.533000
     52 H16         -8.3020    66.3670    -0.2180 hn         1 B5M       0.502000
@<TRIPOS>BOND
     1     1    13 1   
     2     1    17 1   
     3     1    23 1   
     4     1    29 1   
     5     2     3 ar  
     6     2     6 1   
     7     2    15 ar  
     8     3     4 ar  
     9     3    49 1   
    10     4    16 ar  
    11     4    30 1   
    12     5    15 ar  
    13     5    16 ar  
    14     5    44 1   
    15     6    31 1   
    16     6    32 1   
    17     6    33 1   
    18     7     8 ar  
    19     7    22 ar  
    20     7    45 1   
    21     8    10 ar  
    22     8    19 1   
    23     9    19 2   
    24     9    20 1   
    25     9    34 1   
    26    10    20 1   
    27    10    21 ar  
    28    11    21 ar  
    29    11    22 ar  
    30    11    35 1   
    31    12    18 1   
    32    12    20 1   
    33    12    23 1   
    34    12    36 1   
    35    13    24 1   
    36    13    37 1   
    37    13    38 1   
    38    14    15 1   
    39    14    25 2   
    40    14    46 1   
    41    16    39 1   
    42    17    18 1   
    43    17    26 1   
    44    17    40 1   
    45    18    27 1   
    46    18    41 1   
    47    24    28 1   
    48    26    42 1   
    49    27    43 1   
    50    28    46 1   
    51    28    47 1   
    52    28    48 1   
    53    44    51 1   
    54    45    50 1   
    55    45    52 1   
@<TRIPOS>SUBSTRUCTURE
     1 B5M         1 TEMP              0 ****  ****    0 ROOT
