@<TRIPOS>MOLECULE
B5Y
   52    55     1     0     0
SMALL
abcg2


@<TRIPOS>ATOM
      1 C13        -13.6440    58.6340     0.8670 c5         1 B5Y       0.080300
      2 C20         -9.5470    58.1110     3.2620 ca         1 B5Y      -0.027000
      3 C21         -8.2980    58.5280     2.8460 ca         1 B5Y      -0.154300
      4 C22         -7.7290    57.8630     1.7570 ca         1 B5Y      -0.058000
      5 C24         -9.6750    56.4590     1.5050 ca         1 B5Y       0.203100
      6 C26         -7.5790    59.6580     3.5240 c3         1 B5Y      -0.028800
      7 C02         -7.9180    61.9770     0.2940 ca         1 B5Y       0.444900
      8 C03         -9.0350    61.1230     0.2580 ca         1 B5Y      -0.089600
      9 C05        -10.5050    59.6400    -0.0440 cc         1 B5Y       0.429700
     10 C07        -10.0500    61.4030     1.1610 ca         1 B5Y       0.120500
     11 C09         -8.9700    63.1250     1.9890 ca         1 B5Y       0.169900
     12 C11        -12.2700    60.3490     1.6500 c5         1 B5Y       0.277300
     13 C14        -14.8880    58.1640     1.6060 c3         1 B5Y       0.233600
     14 C18        -11.6000    56.7630     3.1460 c          1 B5Y       0.680700
     15 C19        -10.2560    57.0910     2.6160 ca         1 B5Y      -0.229600
     16 C23         -8.3930    56.8460     1.1060 ca         1 B5Y      -0.182000
     17 C30        -13.8760    59.8820    -0.0160 c5         1 B5Y       0.149300
     18 C32        -13.4130    61.0270     0.8830 c5         1 B5Y       0.134300
     19 N04         -9.3420    60.0160    -0.4870 nd         1 B5Y      -0.565100
     20 N06        -10.9950    60.4430     0.9490 na         1 B5Y      -0.298300
     21 N08        -10.0710    62.3960     2.0470 nb         1 B5Y      -0.221000
     22 N10         -7.9210    62.9760     1.1850 nb         1 B5Y      -0.314000
     23 O12        -12.6380    59.0180     1.8000 os         1 B5Y      -0.407000
     24 O15        -14.5930    57.2450     2.6450 os         1 B5Y      -0.585400
     25 O27        -11.9860    57.0870     4.2390 o          1 B5Y      -0.482000
     26 O31        -15.1870    60.0730    -0.4560 oh         1 B5Y      -0.686000
     27 O33        -14.4570    61.3750     1.7480 oh         1 B5Y      -0.677000
     28 P16        -14.0250    55.7470     2.3870 p5         1 B5Y       1.409800
     29 H1         -13.2490    57.8070     0.2690 h1         1 B5Y       0.082700
     30 H3          -6.7450    58.1540     1.4060 ha         1 B5Y       0.095000
     31 H4          -7.4960    60.5260     2.8680 hc         1 B5Y       0.030700
     32 H5          -8.1000    59.9760     4.4250 hc         1 B5Y       0.030700
     33 H6          -6.5630    59.3750     3.8050 hc         1 B5Y       0.030700
     34 H7         -11.0400    58.7730    -0.3990 h5         1 B5Y       0.079800
     35 H8          -8.9080    63.9540     2.6860 h5         1 B5Y       0.037100
     36 H9         -12.1120    60.8090     2.6290 h2         1 B5Y       0.116700
     37 H10        -15.3850    59.0030     2.0910 h1         1 B5Y       0.049700
     38 H11        -15.5860    57.7280     0.8870 h1         1 B5Y       0.049700
     39 H12         -7.9370    56.3480     0.2600 ha         1 B5Y       0.116000
     40 H13        -13.1850    59.8350    -0.8680 h1         1 B5Y       0.033700
     41 H14        -13.0530    61.8860     0.3060 h1         1 B5Y       0.056700
     42 H19        -15.3520    59.4690    -1.1870 ho         1 B5Y       0.508000
     43 H20        -14.1810    62.1320     2.2750 ho         1 B5Y       0.504000
     44 O25        -10.2550    55.4790     0.7980 oh         1 B5Y      -0.558100
     45 N01         -6.8710    61.8320    -0.5210 nv         1 B5Y      -1.072900
     46 O17        -12.3350    56.0640     2.2760 os         1 B5Y      -0.590500
     47 O28        -14.3320    55.2740     1.0090 o          1 B5Y      -0.791500
     48 O29        -14.2760    54.9550     3.6160 o          1 B5Y      -0.791500
     49 H2         -10.0100    58.5990     4.1100 ha         1 B5Y       0.126000
     50 H15         -6.0690    62.4310    -0.4270 hn         1 B5Y       0.501500
     51 H17        -11.1740    55.3730     1.0960 ho         1 B5Y       0.524000
     52 H16         -6.8140    61.0570    -1.1590 hn         1 B5Y       0.501500
@<TRIPOS>BOND
     1     1    13 1   
     2     1    17 1   
     3     1    23 1   
     4     1    29 1   
     5     2     3 ar  
     6     2    15 ar  
     7     2    49 1   
     8     3     4 ar  
     9     3     6 1   
    10     4    16 ar  
    11     4    30 1   
    12     5    15 ar  
    13     5    16 ar  
    14     5    44 1   
    15     6    31 1   
    16     6    32 1   
    17     6    33 1   
    18     7     8 ar  
    19     7    22 ar  
    20     7    45 1   
    21     8    10 ar  
    22     8    19 1   
    23     9    19 2   
    24     9    20 1   
    25     9    34 1   
    26    10    20 1   
    27    10    21 ar  
    28    11    21 ar  
    29    11    22 ar  
    30    11    35 1   
    31    12    18 1   
    32    12    20 1   
    33    12    23 1   
    34    12    36 1   
    35    13    24 1   
    36    13    37 1   
    37    13    38 1   
    38    14    15 1   
    39    14    25 2   
    40    14    46 1   
    41    16    39 1   
    42    17    18 1   
    43    17    26 1   
    44    17    40 1   
    45    18    27 1   
    46    18    41 1   
    47    24    28 1   
    48    26    42 1   
    49    27    43 1   
    50    28    46 1   
    51    28    47 1   
    52    28    48 1   
    53    44    51 1   
    54    45    50 1   
    55    45    52 1   
@<TRIPOS>SUBSTRUCTURE
     1 B5Y         1 TEMP              0 ****  ****    0 ROOT
