@<TRIPOS>MOLECULE
B70
   40    41     1     0     0
SMALL
abcg2


@<TRIPOS>ATOM
      1 CAJ         57.3420    19.3220    54.5410 ca         1 B70      -0.116000
      2 CAH         57.7160    20.6300    54.8250 ca         1 B70      -0.120500
      3 CAG         58.1070    21.4870    53.8000 ca         1 B70      -0.151000
      4 CAI         58.1200    21.0220    52.4890 ca         1 B70      -0.120500
      5 CAK         57.7460    19.7140    52.2050 ca         1 B70      -0.116000
      6 CAT         57.3510    18.8390    53.2260 cp         1 B70       0.033000
      7 CAU         56.9580    17.4450    52.9240 cp         1 B70      -0.123000
      8 CAO         56.2690    17.1230    51.7500 ca         1 B70      -0.108000
      9 CAM         55.9000    15.8120    51.4720 ca         1 B70      -0.118000
     10 CAN         57.2620    16.4010    53.8070 ca         1 B70      -0.108000
     11 CAL         56.8940    15.0940    53.5240 ca         1 B70      -0.118000
     12 CAS         56.2040    14.7730    52.3510 ca         1 B70       0.001700
     13 CAQ         55.8430    13.3450    52.0460 c3         1 B70      -0.044100
     14 CAP         57.0450    12.5320    51.5410 c3         1 B70      -0.053400
     15 CAR         56.7390    11.0460    51.3360 c3         1 B70       0.008600
     16 CAV         56.4370    10.2590    52.6230 c3         1 B70      -0.594700
     17 PAW         57.9450    10.1660    53.7810 p5         1 B70       1.346500
     18 OAB         57.7060     9.0520    54.7980 o          1 B70      -0.947167
     19 OAC         59.1530     9.9070    52.8740 o          1 B70      -0.947167
     20 OAA         57.9590    11.5590    54.4220 o          1 B70      -0.947167
     21 SAX         55.6170     8.6960    52.1960 s6         1 B70       1.362600
     22 OAF         54.6120     9.0170    51.1590 o          1 B70      -0.752867
     23 OAE         54.9610     8.2030    53.4190 o          1 B70      -0.752867
     24 OAD         56.6370     7.7640    51.6790 o          1 B70      -0.752867
     25 HAJ         57.0230    18.6740    55.3460 ha         1 B70       0.118000
     26 HAH         57.6940    20.9830    55.8490 ha         1 B70       0.090500
     27 HAG         58.3990    22.5060    54.0210 ha         1 B70       0.085000
     28 HAI         58.4300    21.6760    51.6830 ha         1 B70       0.090500
     29 HAK         57.7790    19.3600    51.1830 ha         1 B70       0.118000
     30 HAO         55.9980    17.9090    51.0560 ha         1 B70       0.086500
     31 HAM         55.3560    15.5950    50.5590 ha         1 B70       0.149000
     32 HAN         57.8090    16.6120    54.7180 ha         1 B70       0.086500
     33 HAL         57.1500    14.3010    54.2170 ha         1 B70       0.149000
     34 HAQ         55.4500    12.8790    52.9520 hc         1 B70       0.055700
     35 HAQA        55.0460    13.3160    51.2980 hc         1 B70       0.055700
     36 HAP         57.3720    12.9570    50.5850 hc         1 B70       0.033700
     37 HAPA        57.8660    12.6420    52.2490 hc         1 B70       0.033700
     38 HAR         55.8890    10.9600    50.6550 hc         1 B70       0.022200
     39 HARA        57.5940    10.5770    50.8450 hc         1 B70       0.022200
     40 HAV         55.6540    10.7700    53.1900 h1         1 B70       0.040700
@<TRIPOS>BOND
     1     1     2 ar  
     2     1     6 ar  
     3     1    25 1   
     4     2     3 ar  
     5     2    26 1   
     6     3     4 ar  
     7     3    27 1   
     8     4     5 ar  
     9     4    28 1   
    10     5     6 ar  
    11     5    29 1   
    12     6     7 1   
    13     7     8 ar  
    14     7    10 ar  
    15     8     9 ar  
    16     8    30 1   
    17     9    12 ar  
    18     9    31 1   
    19    10    11 ar  
    20    10    32 1   
    21    11    12 ar  
    22    11    33 1   
    23    12    13 1   
    24    13    14 1   
    25    13    34 1   
    26    13    35 1   
    27    14    15 1   
    28    14    36 1   
    29    14    37 1   
    30    15    16 1   
    31    15    38 1   
    32    15    39 1   
    33    16    17 1   
    34    16    21 1   
    35    16    40 1   
    36    17    18 1   
    37    17    19 1   
    38    17    20 1   
    39    21    22 1   
    40    21    23 1   
    41    21    24 1   
@<TRIPOS>SUBSTRUCTURE
     1 B70         1 TEMP              0 ****  ****    0 ROOT
