@<TRIPOS>MOLECULE
BE1
   19    18     1     0     0
SMALL
abcg2


@<TRIPOS>ATOM
      1 C1           1.0070     1.4080    -3.1130 c3         1 BE1      -0.172100
      2 C2           1.4560     0.3240    -2.1700 c          1 BE1       0.610100
      3 C3           0.8800    -1.4670    -0.5770 c3         1 BE1       0.093000
      4 C4           1.0890    -0.9400     0.8290 c3         1 BE1       0.224600
      5 O2           2.6370     0.0980    -1.9630 o          1 BE1      -0.617100
      6 N            0.5100    -0.4390    -1.5470 n          1 BE1      -0.320600
      7 O4          -0.1020    -0.4310     1.3380 os         1 BE1      -0.582400
      8 P           -0.0360     0.2860     2.8850 p5         1 BE1       1.274900
      9 O1P          0.9240     1.4620     2.7360 o          1 BE1      -0.927500
     10 O2P         -1.4960     0.6660     3.0880 o          1 BE1      -0.927500
     11 O3P          0.4760    -0.8190     3.8050 o          1 BE1      -0.927500
     12 BR          -1.2870    -0.0620    -1.7040 br         1 BE1       0.041200
     13 H11          1.8880     1.8620    -3.5590 hc         1 BE1       0.050367
     14 H12          0.3750     1.0200    -3.9120 hc         1 BE1       0.050367
     15 H13          0.4450     2.1870    -2.5960 hc         1 BE1       0.050367
     16 H31          0.1130    -2.2430    -0.5890 h1         1 BE1       0.028700
     17 H32          1.8000    -1.9320    -0.9310 h1         1 BE1       0.028700
     18 H41          1.4740    -1.7770     1.4310 h1         1 BE1       0.011200
     19 H42          1.8830    -0.1810     0.8090 h1         1 BE1       0.011200
@<TRIPOS>BOND
     1     1     2 1   
     2     1    13 1   
     3     1    14 1   
     4     1    15 1   
     5     2     5 2   
     6     2     6 1   
     7     3     4 1   
     8     3     6 1   
     9     3    16 1   
    10     3    17 1   
    11     4     7 1   
    12     4    18 1   
    13     4    19 1   
    14     6    12 1   
    15     7     8 1   
    16     8     9 1   
    17     8    10 1   
    18     8    11 1   
@<TRIPOS>SUBSTRUCTURE
     1 BE1         1 TEMP              0 ****  ****    0 ROOT
