@<TRIPOS>MOLECULE
BHI
   26    25     1     0     0
SMALL
abcg2


@<TRIPOS>ATOM
      1 O1           9.2820     9.6640    12.8640 oh         1 BHI      -0.700000
      2 O2          11.2030     2.5900    10.2220 o          1 BHI      -0.951833
      3 O3           8.6650     2.3750    10.5820 o          1 BHI      -0.951833
      4 O4          10.2880     1.4310    12.3270 o          1 BHI      -0.951833
      5 P5          10.0520     2.4330    11.2060 p5         1 BHI       1.354900
      6 O6           9.9840     3.9640    12.0260 os         1 BHI      -0.732800
      7 O7          11.5050     5.8440    11.1730 o          1 BHI      -0.884000
      8 O8          12.3600     4.2430    13.0330 o          1 BHI      -0.884000
      9 P9          11.2210     4.9380    12.3430 p5         1 BHI       1.462800
     10 C10          9.7510     9.9490    15.1540 c3         1 BHI       0.131600
     11 C11         11.3560     8.7870    13.7410 c3         1 BHI      -0.122100
     12 C13          9.1170     7.6790    14.2620 c3         1 BHI      -0.115400
     13 C14          9.8550     8.9940    13.9710 c3         1 BHI       0.199000
     14 O15         10.5090     5.8440    13.5430 os         1 BHI      -0.606400
     15 BR           7.9080    10.4800    15.6020 br         1 BHI      -0.343000
     16 HO1          9.4950     9.1740    12.0630 ho         1 BHI       0.474000
     17 H101        10.1650     9.4930    16.0510 h1         1 BHI       0.056200
     18 H102        10.2810    10.8790    14.9480 h1         1 BHI       0.056200
     19 H111        11.8260     8.2760    14.5810 hc         1 BHI       0.054367
     20 H112        11.5330     8.1830    12.8500 hc         1 BHI       0.054367
     21 H113        11.8550     9.7480    13.6020 hc         1 BHI       0.054367
     22 H121         8.4600     5.8730    13.3380 h1         1 BHI       0.020700
     23 H122         9.3130     6.9360    12.2390 h1         1 BHI       0.020700
     24 H131         8.0460     7.8950    14.2970 hc         1 BHI       0.031700
     25 H132         9.3870     7.3150    15.2580 hc         1 BHI       0.031700
     26 C12          9.3210     6.5470    13.2650 c3         1 BHI       0.243600
@<TRIPOS>BOND
     1     1    13 1   
     2     1    16 1   
     3     2     5 1   
     4     3     5 1   
     5     4     5 1   
     6     5     6 1   
     7     6     9 1   
     8     7     9 1   
     9     8     9 1   
    10     9    14 1   
    11    10    13 1   
    12    10    15 1   
    13    10    17 1   
    14    10    18 1   
    15    11    13 1   
    16    11    19 1   
    17    11    20 1   
    18    11    21 1   
    19    12    13 1   
    20    12    24 1   
    21    12    25 1   
    22    12    26 1   
    23    14    26 1   
    24    22    26 1   
    25    23    26 1   
@<TRIPOS>SUBSTRUCTURE
     1 BHI         1 TEMP              0 ****  ****    0 ROOT
