@<TRIPOS>MOLECULE
BUE
   62    61     1     0     0
SMALL
abcg2


@<TRIPOS>ATOM
      1 O34         -4.1840    -1.6240    -0.4850 o          1 BUE      -0.948167
      2 P35         -2.8340    -2.3240    -0.4100 p5         1 BUE       1.351900
      3 O36         -2.2600    -2.4430     0.9980 o          1 BUE      -0.948167
      4 O37         -2.6910    -3.5710    -1.2670 o          1 BUE      -0.948167
      5 O38         -1.7330    -1.2390    -1.2250 os         1 BUE      -0.716800
      6 P39         -1.7880     0.3620    -1.2500 p5         1 BUE       1.448800
      7 O40         -2.7710     0.8920    -2.2610 o          1 BUE      -0.886000
      8 O41         -1.7930     0.9610     0.1340 o          1 BUE      -0.886000
      9 O42         -0.2560     0.5570    -1.8860 os         1 BUE      -0.567400
     10 C43          0.0710     1.8630    -2.3300 c3         1 BUE       0.243800
     11 C44          1.5380     1.9410    -2.6090 c2         1 BUE      -0.132200
     12 H4          -0.4790     2.1010    -3.2480 h1         1 BUE       0.010200
     13 H5          -0.2190     2.6150    -1.5890 h1         1 BUE       0.010200
     14 H6           1.8780     1.3770    -3.4740 ha         1 BUE       0.145000
     15 C1           2.4480     2.6220    -1.9080 c2         1 BUE      -0.213400
     16 C2           3.8960     2.6070    -2.3020 c3         1 BUE      -0.029900
     17 C15          2.1370     3.3950    -0.6520 c3         1 BUE      -0.009200
     18 H7           4.2450     3.6170    -2.5350 hc         1 BUE       0.008700
     19 H8           4.5240     2.2430    -1.4850 hc         1 BUE       0.008700
     20 H25          2.8030     4.2600    -0.5820 hc         1 BUE       0.025200
     21 H26          1.1210     3.7910    -0.6630 hc         1 BUE       0.025200
     22 C19          2.3170     2.5130     0.5890 c3         1 BUE      -0.043200
     23 C20          2.0390     3.2360     1.8710 c2         1 BUE      -0.233200
     24 C21          1.3590     2.7520     2.9140 c2         1 BUE      -0.096400
     25 C22          1.1720     3.5530     4.1680 c3         1 BUE      -0.044900
     26 C3           0.8010     1.3510     2.9470 c3         1 BUE      -0.062200
     27 H9           4.0790     1.9760    -3.1710 hc         1 BUE       0.008700
     28 H10          1.6680     1.6410     0.4920 hc         1 BUE       0.062700
     29 H11          3.3410     2.1220     0.6000 hc         1 BUE       0.062700
     30 H12          2.4540     4.2390     1.9460 ha         1 BUE       0.122000
     31 H13          0.1110     3.7090     4.3780 hc         1 BUE       0.018033
     32 H14          1.5810     3.0220     5.0330 hc         1 BUE       0.018033
     33 H15          1.6550     4.5280     4.1120 hc         1 BUE       0.018033
     34 H16          0.0550     1.2670     3.7410 hc         1 BUE       0.097200
     35 H17          0.2790     1.1080     2.0170 hc         1 BUE       0.097200
     36 C4           1.9120     0.3140     3.1910 c3         1 BUE      -0.006200
     37 C5           1.4140    -1.1000     3.2820 c2         1 BUE      -0.300200
     38 C6           1.2480    -1.9340     2.2530 c2         1 BUE      -0.002400
     39 C7           0.7670    -3.3420     2.4420 c3         1 BUE      -0.074900
     40 C8           1.5480    -1.5400     0.8310 c3         1 BUE      -0.062200
     41 H18          2.6560     0.4090     2.3970 hc         1 BUE       0.004200
     42 H19          2.4300     0.5720     4.1180 hc         1 BUE       0.004200
     43 H20          1.1660    -1.4590     4.2780 ha         1 BUE       0.137000
     44 H21         -0.1940    -3.4780     1.9430 hc         1 BUE       0.049367
     45 H22          1.4640    -4.0600     2.0000 hc         1 BUE       0.049367
     46 H23          0.6500    -3.5960     3.4960 hc         1 BUE       0.049367
     47 H24          0.8240    -2.0140     0.1620 hc         1 BUE       0.107200
     48 H27          1.4250    -0.4650     0.6900 hc         1 BUE       0.107200
     49 C9           2.9660    -1.9380     0.3940 c3         1 BUE      -0.034200
     50 C10          3.2750    -1.4480    -0.9860 c2         1 BUE      -0.169200
     51 C11          3.4040    -2.1630    -2.1060 c2         1 BUE      -0.142400
     52 C12          3.2700    -3.6550    -2.1870 c3         1 BUE      -0.038900
     53 C13          3.6990    -1.4960    -3.4180 c3         1 BUE      -0.038900
     54 H28          3.6790    -1.4970     1.0970 hc         1 BUE       0.013700
     55 H29          3.0850    -3.0200     0.4770 hc         1 BUE       0.013700
     56 H30          3.3760    -0.3670    -1.0670 ha         1 BUE       0.168000
     57 H31          2.4830    -3.9280    -2.8950 hc         1 BUE       0.024533
     58 H32          4.1910    -4.1060    -2.5640 hc         1 BUE       0.024533
     59 H33          3.0340    -4.1250    -1.2350 hc         1 BUE       0.024533
     60 H34          4.6230    -1.8810    -3.8560 hc         1 BUE       0.024533
     61 H35          2.9070    -1.6930    -4.1450 hc         1 BUE       0.024533
     62 H36          3.8000    -0.4150    -3.3140 hc         1 BUE       0.024533
@<TRIPOS>BOND
     1     1     2 1   
     2     2     3 1   
     3     2     4 1   
     4     2     5 1   
     5     5     6 1   
     6     6     7 1   
     7     6     8 1   
     8     6     9 1   
     9     9    10 1   
    10    10    11 1   
    11    10    12 1   
    12    10    13 1   
    13    11    14 1   
    14    11    15 2   
    15    15    16 1   
    16    15    17 1   
    17    16    18 1   
    18    16    19 1   
    19    16    27 1   
    20    17    20 1   
    21    17    21 1   
    22    17    22 1   
    23    22    23 1   
    24    22    28 1   
    25    22    29 1   
    26    23    24 2   
    27    23    30 1   
    28    24    25 1   
    29    24    26 1   
    30    25    31 1   
    31    25    32 1   
    32    25    33 1   
    33    26    34 1   
    34    26    35 1   
    35    26    36 1   
    36    36    37 1   
    37    36    41 1   
    38    36    42 1   
    39    37    38 2   
    40    37    43 1   
    41    38    39 1   
    42    38    40 1   
    43    39    44 1   
    44    39    45 1   
    45    39    46 1   
    46    40    47 1   
    47    40    48 1   
    48    40    49 1   
    49    49    50 1   
    50    49    54 1   
    51    49    55 1   
    52    50    51 2   
    53    50    56 1   
    54    51    52 1   
    55    51    53 1   
    56    52    57 1   
    57    52    58 1   
    58    52    59 1   
    59    53    60 1   
    60    53    61 1   
    61    53    62 1   
@<TRIPOS>SUBSTRUCTURE
     1 BUE         1 TEMP              0 ****  ****    0 ROOT
