@<TRIPOS>MOLECULE
BV8
  140   148     1     0     0
SMALL
abcg2


@<TRIPOS>ATOM
      1 C1           8.6550    10.0790     4.6810 c2         1 BV8       0.402000
      2 C2           8.6500     7.3410    -5.7750 c3         1 BV8      -0.008000
      3 C3           7.8270     9.8120     6.8940 c3         1 BV8       0.048000
      4 C4           7.4050     8.0850    -6.2470 c3         1 BV8      -0.274000
      5 C5           9.7850     8.9310    -4.2630 c2         1 BV8       0.066000
      6 C6           6.7980    17.6990    -2.7080 c6         1 BV8      -0.361000
      7 C7           7.9170    17.5790    -3.5180 c2         1 BV8      -0.033000
      8 C8           9.0360    16.8310    -3.1070 c2         1 BV8      -0.138000
      9 C9           9.0510    16.1720    -1.8910 c2         1 BV8      -0.085000
     10 C10          7.9280    16.2580    -1.0570 c2         1 BV8      -0.104000
     11 C11          6.8170    17.0380    -1.4790 c2         1 BV8       0.017000
     12 N1           5.8590    16.9460    -0.4980 na         1 BV8      -0.209000
     13 C12          6.3220    16.1380     0.5160 c2         1 BV8      -0.111000
     14 C13          7.5870    15.6930     0.2230 c2         1 BV8      -0.155000
     15 C14          8.3940    14.7120     1.0150 c3         1 BV8      -0.076000
     16 C15          8.0150    13.2590     0.6850 c3         1 BV8      -0.005000
     17 C16          8.2060    12.9800    -0.8140 c2         1 BV8       0.290000
     18 O1           9.3370    12.9380    -1.2980 o          1 BV8      -0.382000
     19 N2           7.0740    12.8020    -1.5090 ns         1 BV8      -0.350000
     20 C17          7.0030    12.6070    -2.9570 c3         1 BV8       0.016000
     21 C18          6.4580    13.8620    -3.6350 c3         1 BV8      -0.228000
     22 C19          6.1580    11.3770    -3.2730 c3         1 BV8      -0.228000
     23 N3           8.8200    12.3260     1.4550 ns         1 BV8      -0.350000
     24 C20          8.3690    11.1110     1.8230 c2         1 BV8       0.296000
     25 O2           7.1970    10.7610     1.7080 o          1 BV8      -0.375000
     26 C21          9.4330    10.1450     2.3680 c3         1 BV8       0.022000
     27 N4           8.9420     9.4350     3.5310 ns         1 BV8      -0.352000
     28 O3           8.8620    11.2660     4.8840 o          1 BV8      -0.409000
     29 O4           8.1300     9.2340     5.5950 os         1 BV8      -0.282000
     30 C22          7.3360     8.7060     7.7780 ca         1 BV8      -0.081000
     31 C23          8.2450     7.9040     8.4700 ca         1 BV8      -0.101500
     32 C24          7.7970     6.8610     9.2720 ca         1 BV8      -0.138000
     33 C25          6.4320     6.6130     9.3930 ca         1 BV8      -0.127000
     34 C26          5.5190     7.4110     8.7110 ca         1 BV8      -0.138000
     35 C27          5.9710     8.4530     7.9070 ca         1 BV8      -0.101500
     36 C28          9.8000     9.1310     1.2720 c3         1 BV8      -0.165000
     37 C29         10.6620     9.7230     0.1530 c3         1 BV8      -0.156000
     38 C30         10.5990     8.9310    -1.1570 c3         1 BV8      -0.160000
     39 C31          9.3210     9.2210    -1.9520 c3         1 BV8      -0.066000
     40 N5           9.2490     8.4780    -3.1990 n2         1 BV8      -0.302000
     41 N6           9.7510     8.2450    -5.4480 n7         1 BV8      -0.303000
     42 C32          7.6030     8.9850    -7.4830 c2         1 BV8       0.338000
     43 O5           8.7410     9.0040    -8.0290 o          1 BV8      -0.578500
     44 O6           6.6010     9.6480    -7.8480 o          1 BV8      -0.578500
     45 S1          10.7580    10.4680    -4.2730 ss         1 BV8      -0.050000
     46 C33         10.1690    11.3660    -5.7740 c5         1 BV8      -0.052000
     47 O7           8.9170    11.9860    -5.5840 os         1 BV8      -0.224000
     48 C34         11.1210    12.5260    -6.1390 c5         1 BV8       0.016000
     49 O8          12.4950    12.3250    -5.9140 oh         1 BV8      -0.298000
     50 C35         10.5660    13.6910    -5.3210 c5         1 BV8       0.012000
     51 O9          11.1050    13.6300    -4.0050 oh         1 BV8      -0.318000
     52 C36          9.0650    13.4070    -5.3550 c5         1 BV8      -0.036000
     53 C37          8.3270    14.1480    -6.4590 c3         1 BV8       0.034000
     54 O10          8.3170    15.5300    -6.1060 os         1 BV8      -0.786000
     55 P1           8.3310    16.7080    -7.2170 p5         1 BV8       1.975000
     56 O11          9.3240    16.4090    -8.2930 o          1 BV8      -0.870000
     57 O12          8.4060    17.9850    -6.4500 o          1 BV8      -0.870000
     58 O13          6.8680    16.5690    -7.9290 os         1 BV8      -1.198000
     59 P2           5.3390    16.3890    -7.3900 p5         1 BV8       1.948000
     60 O14          4.4670    16.7890    -8.5350 o          1 BV8      -0.849500
     61 O15          5.1730    15.0590    -6.7390 o          1 BV8      -0.849500
     62 O16          5.2360    17.4750    -6.1880 os         1 BV8      -0.760000
     63 C38          5.2660    18.8740    -6.4650 c3         1 BV8       0.054000
     64 C39          5.7780    19.5640    -5.2120 c5         1 BV8      -0.021000
     65 O17          5.9400    20.9770    -5.4950 os         1 BV8      -0.261000
     66 C40          4.8350    19.4810    -4.0110 c5         1 BV8      -0.018000
     67 O18          5.5330    19.5810    -2.7740 oh         1 BV8      -0.489000
     68 C41          3.9940    20.7470    -4.1990 c5         1 BV8      -0.007000
     69 O19          3.3650    21.2770    -3.0550 oh         1 BV8      -0.307000
     70 C42          5.0330    21.7410    -4.7200 c5         1 BV8       0.164000
     71 N7           4.4840    22.8040    -5.5310 na         1 BV8      -0.161000
     72 C43          3.7550    22.6770    -6.6940 c2         1 BV8      -0.011000
     73 N8           3.4210    23.8290    -7.2200 n2         1 BV8      -0.166000
     74 C44          3.9560    24.7750    -6.3620 c2         1 BV8      -0.231000
     75 C45          4.6270    24.1570    -5.3090 c2         1 BV8       0.074000
     76 N9           5.2650    24.7750    -4.3100 n2         1 BV8      -0.187000
     77 C46          5.1950    26.1000    -4.4200 c2         1 BV8       0.014000
     78 N10          4.5870    26.8230    -5.3680 n2         1 BV8      -0.321000
     79 C47          3.9490    26.1830    -6.3670 c2         1 BV8       0.238000
     80 N11          3.3310    26.9060    -7.3140 nv         1 BV8      -0.373000
     81 H1           8.4260     6.7400    -4.8960 h1         1 BV8       0.066500
     82 H2           9.0040     6.6700    -6.5580 h1         1 BV8       0.066500
     83 H3           8.7340    10.2640     7.2910 h1         1 BV8       0.096500
     84 H4           7.0710    10.5860     6.7640 h1         1 BV8       0.096500
     85 H5           7.0210     8.7100    -5.4380 hc         1 BV8       0.073000
     86 H6           6.6140     7.3670    -6.4810 hc         1 BV8       0.073000
     87 H9           9.8820    16.7480    -3.7760 ha         1 BV8       0.149000
     88 H10          9.9050    15.5740    -1.5990 ha         1 BV8       0.132000
     89 H11          4.9640    17.4040    -0.5100 hn         1 BV8       0.241000
     90 H12          5.7070    15.9350     1.3780 h4         1 BV8       0.140000
     91 H13          8.2430    14.8560     2.0860 hc         1 BV8       0.084500
     92 H14          9.4590    14.8500     0.8140 hc         1 BV8       0.084500
     93 H15          6.9770    13.0910     0.9620 h1         1 BV8       0.115000
     94 H16          6.2010    12.8960    -1.0130 hn         1 BV8       0.211000
     95 H17          8.0250    12.4320    -3.2880 h1         1 BV8       0.140000
     96 H18          7.0910    14.7240    -3.4260 hc         1 BV8       0.091667
     97 H19          6.4120    13.7170    -4.7150 hc         1 BV8       0.091667
     98 H20          5.4490    14.0810    -3.2770 hc         1 BV8       0.091667
     99 H21          6.1160    11.2230    -4.3520 hc         1 BV8       0.091667
    100 H22          6.5800    10.4840    -2.8120 hc         1 BV8       0.091667
    101 H23          5.1360    11.5070    -2.9090 hc         1 BV8       0.091667
    102 H24          9.8080    12.5160     1.5300 hn         1 BV8       0.232000
    103 H25         10.3210    10.7110     2.6560 h1         1 BV8       0.107000
    104 H26          8.6260     8.4840     3.4260 hn         1 BV8       0.245000
    105 H27          9.3060     8.1020     8.3790 ha         1 BV8       0.137000
    106 H28          8.5100     6.2460     9.8060 ha         1 BV8       0.126000
    107 H29          6.0820     5.8040    10.0210 ha         1 BV8       0.121000
    108 H30          4.4570     7.2250     8.8060 ha         1 BV8       0.126000
    109 H31          5.2610     9.0760     7.3770 ha         1 BV8       0.137000
    110 H32          8.8720     8.7150     0.8710 hc         1 BV8       0.091000
    111 H33         10.3390     8.3070     1.7450 hc         1 BV8       0.091000
    112 H34         11.6950     9.7760     0.5030 hc         1 BV8       0.087000
    113 H35         10.3570    10.7510    -0.0580 hc         1 BV8       0.087000
    114 H36         10.6760     7.8570    -0.9630 hc         1 BV8       0.080500
    115 H37         11.4590     9.2000    -1.7750 hc         1 BV8       0.080500
    116 H38          9.2610    10.2990    -2.1240 h1         1 BV8       0.093000
    117 H39          8.4520     8.9420    -1.3510 h1         1 BV8       0.093000
    118 H42         10.0590    10.6560    -6.5880 h2         1 BV8       0.156000
    119 H43         10.9360    12.7490    -7.1940 h1         1 BV8       0.109000
    120 H44         12.8130    11.6570    -6.5360 ho         1 BV8       0.189000
    121 H45         10.7960    14.6530    -5.7830 h1         1 BV8       0.118000
    122 H46         10.6550    14.2930    -3.4660 ho         1 BV8       0.203000
    123 H47          8.6110    13.6460    -4.3930 h1         1 BV8       0.125000
    124 H48          7.2970    13.7950    -6.5180 h1         1 BV8       0.111500
    125 H49          8.8150    13.9900    -7.4230 h1         1 BV8       0.111500
    126 H52          4.2630    19.2200    -6.7290 h1         1 BV8       0.071000
    127 H53          5.9430    19.0990    -7.2890 h1         1 BV8       0.071000
    128 H54          6.7560    19.1490    -4.9730 h1         1 BV8       0.181000
    129 H55          4.2250    18.5750    -4.0390 h1         1 BV8       0.119000
    130 H56          6.0700    18.7830    -2.6710 DU         1 BV8       0.340000
    131 H57          3.2610    20.5510    -4.9870 h1         1 BV8       0.081000
    132 H58          2.5830    20.7460    -2.8580 ho         1 BV8       0.197000
    133 H59          5.5400    22.2260    -3.8840 h2         1 BV8       0.151000
    134 H60          3.5160    21.7080    -7.1030 h5         1 BV8       0.218000
    135 H61          5.6920    26.6710    -3.6430 h5         1 BV8       0.169000
    136 H62          3.4020    27.9100    -7.3030 hn         1 BV8       0.235500
    137 H63          2.8970    26.4560    -8.1020 hn         1 BV8       0.235500
    138 H40         10.0660     8.7410    -6.2660 hn         1 BV8       0.244000
    139 H7           5.9320    18.2660    -3.0260 DU         1 BV8       0.279000
    140 H8           7.9150    18.0340    -4.4990 ha         1 BV8       0.229000
@<TRIPOS>BOND
     1     1    27 1   
     2     1    28 1   
     3     1    29 1   
     4     2     4 1   
     5     2    41 1   
     6     2    81 1   
     7     2    82 1   
     8     3    29 1   
     9     3    30 1   
    10     3    83 1   
    11     3    84 1   
    12     4    42 1   
    13     4    85 1   
    14     4    86 1   
    15     5    40 1   
    16     5    41 1   
    17     5    45 1   
    18     6     7 1   
    19     6    11 1   
    20     6   130 1   
    21     6   139 1   
    22     7     8 1   
    23     7   140 1   
    24     8     9 1   
    25     8    87 1   
    26     9    10 1   
    27     9    88 1   
    28    10    11 1   
    29    10    14 1   
    30    11    12 1   
    31    12    13 1   
    32    12    89 1   
    33    13    14 1   
    34    13    90 1   
    35    14    15 1   
    36    15    16 1   
    37    15    91 1   
    38    15    92 1   
    39    16    17 1   
    40    16    23 1   
    41    16    93 1   
    42    17    18 1   
    43    17    19 1   
    44    19    20 1   
    45    19    94 1   
    46    20    21 1   
    47    20    22 1   
    48    20    95 1   
    49    21    96 1   
    50    21    97 1   
    51    21    98 1   
    52    22    99 1   
    53    22   100 1   
    54    22   101 1   
    55    23    24 1   
    56    23   102 1   
    57    24    25 1   
    58    24    26 1   
    59    26    27 1   
    60    26    36 1   
    61    26   103 1   
    62    27   104 1   
    63    30    31 1   
    64    30    35 1   
    65    31    32 1   
    66    31   105 1   
    67    32    33 1   
    68    32   106 1   
    69    33    34 1   
    70    33   107 1   
    71    34    35 1   
    72    34   108 1   
    73    35   109 1   
    74    36    37 1   
    75    36   110 1   
    76    36   111 1   
    77    37    38 1   
    78    37   112 1   
    79    37   113 1   
    80    38    39 1   
    81    38   114 1   
    82    38   115 1   
    83    39    40 1   
    84    39   116 1   
    85    39   117 1   
    86    41   138 1   
    87    42    43 1   
    88    42    44 1   
    89    45    46 1   
    90    46    47 1   
    91    46    48 1   
    92    46   118 1   
    93    47    52 1   
    94    48    49 1   
    95    48    50 1   
    96    48   119 1   
    97    49   120 1   
    98    50    51 1   
    99    50    52 1   
   100    50   121 1   
   101    51   122 1   
   102    52    53 1   
   103    52   123 1   
   104    53    54 1   
   105    53   124 1   
   106    53   125 1   
   107    54    55 1   
   108    55    56 1   
   109    55    57 1   
   110    55    58 1   
   111    58    59 1   
   112    59    60 1   
   113    59    61 1   
   114    59    62 1   
   115    62    63 1   
   116    63    64 1   
   117    63   126 1   
   118    63   127 1   
   119    64    65 1   
   120    64    66 1   
   121    64   128 1   
   122    65    70 1   
   123    66    67 1   
   124    66    68 1   
   125    66   129 1   
   126    67   130 1   
   127    68    69 1   
   128    68    70 1   
   129    68   131 1   
   130    69   132 1   
   131    70    71 1   
   132    70   133 1   
   133    71    72 1   
   134    71    75 1   
   135    72    73 1   
   136    72   134 1   
   137    73    74 1   
   138    74    75 1   
   139    74    79 1   
   140    75    76 1   
   141    76    77 1   
   142    77    78 1   
   143    77   135 1   
   144    78    79 1   
   145    79    80 1   
   146    80   136 1   
   147    80   137 1   
   148   130   139 1   
@<TRIPOS>SUBSTRUCTURE
     1 BV8         1 TEMP              0 ****  ****    0 ROOT
