@<TRIPOS>MOLECULE
BY3
   48    50     1     0     0
SMALL
abcg2


@<TRIPOS>ATOM
      1 C13         -3.8080     1.3320    -2.2360 ce         1 BY3       0.490800
      2 C15         -5.8020     1.2660    -1.0120 c3         1 BY3      -0.010500
      3 C20         -7.3060     0.1480    -2.7860 c5         1 BY3       0.173300
      4 C22         -7.3500    -1.1820    -2.1120 ca         1 BY3      -0.113300
      5 C28         -7.0540    -3.7960    -1.2960 ca         1 BY3      -0.087000
      6 C02         -1.4330    -1.2940    -3.5230 ca         1 BY3       0.222300
      7 C04         -0.7860     0.7440    -4.3570 ca         1 BY3       0.239900
      8 C05         -1.8010     1.4320    -3.7210 ca         1 BY3      -0.013300
      9 C06         -1.9110     2.9280    -3.8520 c3         1 BY3       0.279900
     10 C12         -2.6970     0.6880    -2.9380 ca         1 BY3      -0.200900
     11 C16         -6.1120     0.5720     0.3440 c          1 BY3       0.731000
     12 C19         -7.0170     1.3780    -1.9410 c3         1 BY3      -0.049400
     13 C23         -6.5060    -2.0490    -2.8020 ca         1 BY3       0.004000
     14 C25         -6.2900    -0.0800    -3.9300 c          1 BY3       0.575000
     15 C27         -6.3350    -3.3620    -2.4070 ca         1 BY3      -0.163000
     16 C29         -7.9100    -2.9440    -0.6090 ca         1 BY3      -0.154000
     17 C30         -8.0660    -1.6220    -1.0200 ca         1 BY3       0.001000
     18 C31         -2.5090    -0.6970    -2.8380 ca         1 BY3       0.144100
     19 N03         -0.6090    -0.5740    -4.2630 nb         1 BY3      -0.691000
     20 N14         -4.7090     0.6180    -1.6920 n2         1 BY3      -0.675900
     21 N24         -5.9260    -1.3850    -3.8750 ns         1 BY3      -0.145000
     22 O07         -1.6260     3.5260    -2.6220 os         1 BY3      -0.574400
     23 O09         -3.9160     4.5860    -2.1260 o          1 BY3      -0.919167
     24 O10         -1.7730     5.3650    -0.9340 o          1 BY3      -0.919167
     25 O11         -2.1510     5.9060    -3.4330 o          1 BY3      -0.919167
     26 O17         -7.1460     0.9670     0.9160 o          1 BY3      -0.740000
     27 O18         -5.2830    -0.2550     0.7570 o          1 BY3      -0.740000
     28 O26         -5.9260     0.7440    -4.7330 o          1 BY3      -0.496000
     29 O32         -3.3010    -1.4780    -2.1070 oh         1 BY3      -0.596100
     30 P08         -2.4430     4.9930    -2.2470 p5         1 BY3       1.266900
     31 CL21        -8.8880     0.4320    -3.6480 cl         1 BY3      -0.348000
     32 H131        -3.8400     2.4260    -2.1930 h4         1 BY3       0.100800
     33 H281        -6.9400    -4.8200    -0.9640 ha         1 BY3       0.079000
     34 H013        -0.3450    -3.0560    -4.0240 hc         1 BY3       0.017367
     35 H011        -1.0300    -3.0860    -2.3960 hc         1 BY3       0.017367
     36 H012        -2.0730    -3.3350    -3.7840 hc         1 BY3       0.017367
     37 H041        -0.0730     1.2800    -4.9760 h4         1 BY3      -0.003900
     38 H062        -1.2140     3.2580    -4.6360 h1         1 BY3       0.003200
     39 H061        -2.9160     3.1800    -4.2170 h1         1 BY3       0.003200
     40 H191        -6.8770     2.2170    -2.6270 hc         1 BY3       0.073200
     41 H192        -7.8880     1.6060    -1.3280 hc         1 BY3       0.073200
     42 H271        -5.6700    -4.0300    -2.9390 ha         1 BY3       0.101000
     43 H291        -8.4580    -3.3090     0.2490 ha         1 BY3       0.092000
     44 H301        -8.7250    -0.9520    -0.4850 ha         1 BY3       0.140000
     45 H241        -5.2520    -1.7970    -4.5030 hn         1 BY3       0.163000
     46 H321        -4.0390    -0.8970    -1.7540 ho         1 BY3       0.552000
     47 H1          -5.5300     2.3030    -0.7660 h1         1 BY3       0.098700
     48 C01         -1.2090    -2.7710    -3.4260 c3         1 BY3      -0.100400
@<TRIPOS>BOND
     1     1    10 1   
     2     1    20 2   
     3     1    32 1   
     4     2    11 1   
     5     2    12 1   
     6     2    20 1   
     7     2    47 1   
     8     3     4 1   
     9     3    12 1   
    10     3    14 1   
    11     3    31 1   
    12     4    13 ar  
    13     4    17 ar  
    14     5    15 ar  
    15     5    16 ar  
    16     5    33 1   
    17     6    18 ar  
    18     6    19 ar  
    19     6    48 1   
    20     7     8 ar  
    21     7    19 ar  
    22     7    37 1   
    23     8     9 1   
    24     8    10 ar  
    25     9    22 1   
    26     9    38 1   
    27     9    39 1   
    28    10    18 ar  
    29    11    26 1   
    30    11    27 1   
    31    12    40 1   
    32    12    41 1   
    33    13    15 ar  
    34    13    21 1   
    35    14    21 1   
    36    14    28 2   
    37    15    42 1   
    38    16    17 ar  
    39    16    43 1   
    40    17    44 1   
    41    18    29 1   
    42    21    45 1   
    43    22    30 1   
    44    23    30 1   
    45    24    30 1   
    46    25    30 1   
    47    29    46 1   
    48    34    48 1   
    49    35    48 1   
    50    36    48 1   
@<TRIPOS>SUBSTRUCTURE
     1 BY3         1 TEMP              0 ****  ****    0 ROOT
