@<TRIPOS>MOLECULE
42E
   29    30     1     0     0
SMALL
abcg2


@<TRIPOS>ATOM
      1 PA           3.1680    -1.0860     0.1720 p5         1 42E       1.270900
      2 O1A          3.8710    -1.0600     1.5240 o          1 42E      -0.915833
      3 O2A          2.4090    -2.3640    -0.1530 o          1 42E      -0.915833
      4 O5           1.8370    -0.0020     0.3720 os         1 42E      -0.582400
      5 C5           2.0560     1.3080     0.7530 c3         1 42E       0.265600
      6 C4           0.8020     2.1310     0.5480 c5         1 42E       0.304300
      7 O4          -0.2660     1.6330     1.3420 os         1 42E      -0.443000
      8 S3           0.2070     2.1100    -1.1730 ss         1 42E      -0.413000
      9 C2          -1.4380     2.4880    -0.5370 c5         1 42E      -0.009400
     10 C1          -1.5210     1.6580     0.7440 c5         1 42E       0.342700
     11 N1          -1.9790     0.2860     0.4710 n          1 42E      -0.326000
     12 C8          -3.3590     0.0850     0.3200 c          1 42E       0.708400
     13 O2          -4.1090     1.0510     0.4170 o          1 42E      -0.632000
     14 N3          -3.8010    -1.1640     0.0710 nc         1 42E      -0.827100
     15 C7          -2.9520    -2.1660    -0.0710 cd         1 42E       0.775500
     16 N4          -3.4470    -3.3800    -0.3240 nv         1 42E      -1.057200
     17 C3          -1.5440    -1.9850     0.0380 cd         1 42E      -0.498600
     18 C6          -1.1090    -0.7370     0.3150 cc         1 42E       0.065600
     19 H3           2.3390     1.4010     1.8130 h1         1 42E       0.014200
     20 H4           2.8600     1.7940     0.1810 h1         1 42E       0.014200
     21 H5           1.0030     3.1700     0.8370 h2         1 42E       0.024700
     22 H6          -1.5340     3.5500    -0.3050 h1         1 42E       0.068700
     23 H7          -2.2030     2.2200    -1.2630 h1         1 42E       0.068700
     24 H8          -2.2390     2.0990     1.4350 h2         1 42E       0.084700
     25 H9          -4.4410    -3.5190    -0.3890 hn         1 42E       0.484500
     26 H10         -2.8470    -4.1790    -0.4290 hn         1 42E       0.484500
     27 H11         -0.8430    -2.7980    -0.0840 ha         1 42E       0.242000
     28 H12         -0.0530    -0.5220     0.4230 h4         1 42E       0.321000
     29 OP3          3.9620    -0.4820    -0.9800 o          1 42E      -0.915833
@<TRIPOS>BOND
     1     1     2 1   
     2     1     3 1   
     3     1     4 1   
     4     1    29 1   
     5     4     5 1   
     6     5     6 1   
     7     5    19 1   
     8     5    20 1   
     9     6     7 1   
    10     6     8 1   
    11     6    21 1   
    12     7    10 1   
    13     8     9 1   
    14     9    10 1   
    15     9    22 1   
    16     9    23 1   
    17    10    11 1   
    18    10    24 1   
    19    11    12 1   
    20    11    18 1   
    21    12    13 2   
    22    12    14 1   
    23    14    15 2   
    24    15    16 1   
    25    15    17 1   
    26    16    25 1   
    27    16    26 1   
    28    17    18 2   
    29    17    27 1   
    30    18    28 1   
@<TRIPOS>SUBSTRUCTURE
     1 42E         1 TEMP              0 ****  ****    0 ROOT
