@<TRIPOS>MOLECULE
432
   24    23     1     0     0
SMALL
abcg2


@<TRIPOS>ATOM
      1 C2           5.3240    -0.3500     0.4040 c3         1 432      -0.089100
      2 C1           4.1020     0.3800    -0.1330 c3         1 432      -0.068400
      3 CB          -0.7860     0.3160    -0.2130 c3         1 432       0.186600
      4 CA          -1.8910    -0.5380     0.3820 c3         1 432      -0.001500
      5 N           -1.8320    -1.8820    -0.1700 n8         1 432      -0.989200
      6 C           -3.2470     0.2120     0.2050 c          1 432       0.698000
      7 O           -4.1540    -0.3870    -0.4000 o          1 432      -0.724000
      8 OG           0.4830    -0.2380     0.1670 os         1 432      -0.436100
      9 C1A          1.5780     0.2940    -0.3550 c          1 432       0.590100
     10 OAC          1.5670     1.2070    -1.1450 o          1 432      -0.520000
     11 C2A          2.8210    -0.3910     0.1480 c3         1 432      -0.145400
     12 H1           5.4310    -1.3360    -0.0520 hc         1 432       0.026367
     13 H12          6.2380     0.2090     0.2010 hc         1 432       0.026367
     14 H3           5.2570    -0.4940     1.4840 hc         1 432       0.026367
     15 H4           4.0400     1.3720     0.3200 hc         1 432       0.049200
     16 H5           4.2120     0.5380    -1.2080 hc         1 432       0.049200
     17 H6          -0.8710     0.3370    -1.3040 h1         1 432       0.053200
     18 H7          -0.8600     1.3390     0.1550 h1         1 432       0.053200
     19 HA          -1.7110    -0.6110     1.4610 h1         1 432       0.048700
     20 H           -2.4430    -2.4800     0.3730 hn         1 432       0.382000
     21 H2          -2.2580    -1.8600    -1.0900 hn         1 432       0.382000
     22 H13          2.8680    -1.3820    -0.3180 hc         1 432       0.064200
     23 H14          2.7150    -0.5790     1.2200 hc         1 432       0.064200
     24 OXT         -3.2960     1.3570     0.6980 o          1 432      -0.724000
@<TRIPOS>BOND
     1     1     2 1   
     2     1    12 1   
     3     1    13 1   
     4     1    14 1   
     5     2    11 1   
     6     2    15 1   
     7     2    16 1   
     8     3     4 1   
     9     3     8 1   
    10     3    17 1   
    11     3    18 1   
    12     4     5 1   
    13     4     6 1   
    14     4    19 1   
    15     5    20 1   
    16     5    21 1   
    17     6     7 1   
    18     6    24 1   
    19     8     9 1   
    20     9    10 2   
    21     9    11 1   
    22    11    22 1   
    23    11    23 1   
@<TRIPOS>SUBSTRUCTURE
     1 432         1 TEMP              0 ****  ****    0 ROOT
