@<TRIPOS>MOLECULE
47C
   40    41     1     0     0
SMALL
abcg2


@<TRIPOS>ATOM
      1 N1          27.0070     9.7350    15.7590 n          1 47C      -0.306000
      2 C2          26.0140     9.6180    16.7450 c          1 47C       0.708400
      3 N3          25.0420    10.5520    16.7740 nc         1 47C      -0.816100
      4 C4          24.9920    11.4990    15.8640 cd         1 47C       0.747500
      5 C5          25.9480    11.6220    14.8250 cd         1 47C      -0.470600
      6 C6          26.9450    10.7030    14.8230 cc         1 47C       0.074600
      7 O2          26.0610     8.6880    17.5410 o          1 47C      -0.619000
      8 N4          23.9320    12.3340    15.9550 nu         1 47C      -0.675900
      9 C1          28.0750     8.7300    15.7420 c5         1 47C       0.344700
     10 C7          27.7590     7.5270    14.8620 c5         1 47C      -0.154400
     11 CM2         23.0050    13.5630    14.2430 c3         1 47C       0.175800
     12 C3          29.1480     7.0790    14.4370 c5         1 47C       0.138300
     13 C8          29.8900     8.4100    14.3100 c5         1 47C       0.155300
     14 O4          29.2400     9.3000    15.2230 os         1 47C      -0.459000
     15 O3          29.7940     6.3280    15.4450 oh         1 47C      -0.744000
     16 C9          29.9340     8.9920    12.9100 c3         1 47C       0.237600
     17 O5          28.6680     9.0620    12.3370 os         1 47C      -0.595400
     18 P           28.3630    10.3640    11.2520 p5         1 47C       1.262900
     19 OP1         29.4460    10.2330    10.1880 o          1 47C      -0.917167
     20 OP2         26.9480    10.0420    10.8020 o          1 47C      -0.917167
     21 O           23.9850    13.5240    15.2870 os         1 47C      -0.200300
     22 CD          22.9950    14.9500    13.6990 c2         1 47C      -0.232200
     23 CE          23.2630    15.2400    12.4330 c2         1 47C      -0.288000
     24 OP3         28.4950    11.6170    12.1260 o          1 47C      -0.917167
     25 H6          27.7160    10.7430    14.0620 h4         1 47C       0.317000
     26 H1          28.2280     8.4320    16.7810 h2         1 47C       0.066700
     27 H5          25.9160    12.3930    14.0720 ha         1 47C       0.242000
     28 H4          23.4470    12.3830    16.8430 hn         1 47C       0.485000
     29 H2'1        27.1950     6.7580    15.3920 hc         1 47C       0.080200
     30 H2'2        27.1830     7.8380    13.9910 hc         1 47C       0.080200
     31 H3          29.1310     6.5330    13.4860 h1         1 47C       0.069700
     32 HM21        23.2470    12.8340    13.4630 h1         1 47C       0.048200
     33 HM22        22.0220    13.3080    14.6570 h1         1 47C       0.048200
     34 HD          22.7270    15.7410    14.3930 ha         1 47C       0.156000
     35 H7          30.9270     8.2840    14.6430 h1         1 47C       0.037700
     36 H5'1        30.4190     9.9740    12.9790 h1         1 47C       0.009700
     37 H5'2        30.6160     8.3550    12.3250 h1         1 47C       0.009700
     38 H55         29.2730     5.5350    15.6080 ho         1 47C       0.480000
     39 HE5         23.2160    16.2560    12.0630 ha         1 47C       0.168000
     40 HE6         23.5340    14.4730    11.7180 ha         1 47C       0.168000
@<TRIPOS>BOND
     1     1     2 1   
     2     1     6 1   
     3     1     9 1   
     4     2     3 1   
     5     2     7 2   
     6     3     4 2   
     7     4     5 1   
     8     4     8 1   
     9     5     6 2   
    10     5    27 1   
    11     6    25 1   
    12     8    21 1   
    13     8    28 1   
    14     9    10 1   
    15     9    14 1   
    16     9    26 1   
    17    10    12 1   
    18    10    29 1   
    19    10    30 1   
    20    11    21 1   
    21    11    22 1   
    22    11    32 1   
    23    11    33 1   
    24    12    13 1   
    25    12    15 1   
    26    12    31 1   
    27    13    14 1   
    28    13    16 1   
    29    13    35 1   
    30    15    38 1   
    31    16    17 1   
    32    16    36 1   
    33    16    37 1   
    34    17    18 1   
    35    18    19 1   
    36    18    20 1   
    37    18    24 1   
    38    22    23 2   
    39    22    34 1   
    40    23    39 1   
    41    23    40 1   
@<TRIPOS>SUBSTRUCTURE
     1 47C         1 TEMP              0 ****  ****    0 ROOT
