@<TRIPOS>MOLECULE
4CA
   94    97     1     0     0
SMALL
abcg2


@<TRIPOS>ATOM
      1 N1A         83.7650    26.3530    20.6640 nb         1 4CA      -0.350000
      2 C2A         83.2110    26.0380    21.8320 ca         1 4CA       0.120900
      3 N3A         83.7550    25.3990    22.8520 nb         1 4CA      -0.176000
      4 C4A         85.0130    25.0470    22.5990 ca         1 4CA       0.123500
      5 C5A         85.7100    25.2750    21.4240 ca         1 4CA      -0.051600
      6 C6A         85.0340    26.0010    20.4310 ca         1 4CA       0.407900
      7 N6A         85.6160    26.3910    19.2880 nv         1 4CA      -1.088900
      8 N7A         86.9950    24.8090    21.5240 nc         1 4CA      -0.625100
      9 C8A         87.0670    24.3170    22.7260 cd         1 4CA       0.492700
     10 N9A         85.8970    24.4190    23.4290 na         1 4CA      -0.245300
     11 C1D         85.6420    24.0310    24.8000 c5         1 4CA       0.280300
     12 C2D         85.9670    22.5620    25.1170 c5         1 4CA       0.118300
     13 O2D         84.9710    22.0650    25.9500 oh         1 4CA      -0.862000
     14 C3D         87.3240    22.6850    25.8420 c5         1 4CA       0.213300
     15 O3D         87.6460    21.6870    26.7530 os         1 4CA      -0.577400
     16 P3D         87.5270    20.0380    26.3010 p5         1 4CA       1.303900
     17 O7A         85.9940    19.8010    26.2840 o          1 4CA      -0.900833
     18 O8A         88.1660    19.9420    24.9280 o          1 4CA      -0.900833
     19 O9A         88.2380    19.3440    27.4430 o          1 4CA      -0.900833
     20 C4D         87.1360    24.0160    26.5690 c5         1 4CA       0.139300
     21 O4D         86.4160    24.8320    25.6530 os         1 4CA      -0.455000
     22 C5D         88.3850    24.7270    27.0280 c3         1 4CA       0.246600
     23 O5D         89.2600    24.9370    25.9420 os         1 4CA      -0.591400
     24 P1A         90.6460    25.7870    26.1560 p5         1 4CA       1.474800
     25 O1A         91.4660    25.5400    24.9340 o          1 4CA      -0.853000
     26 O2A         91.1740    25.5670    27.5380 o          1 4CA      -0.853000
     27 O3A         89.9800    27.3070    26.0860 os         1 4CA      -0.712800
     28 P2A         90.7850    28.7030    25.8200 p5         1 4CA       1.492800
     29 O4A         89.8300    29.8060    26.2180 o          1 4CA      -0.856000
     30 O5A         92.1510    28.6410    26.4160 o          1 4CA      -0.856000
     31 O6A         90.9330    28.6690    24.1930 os         1 4CA      -0.597400
     32 CBP         89.0750    29.2630    22.6720 c3         1 4CA      -0.095000
     33 CCP         90.4160    29.6460    23.3120 c3         1 4CA       0.261600
     34 CDP         89.2240    27.9060    21.9830 c3         1 4CA      -0.074600
     35 CEP         88.7770    30.3390    21.6250 c3         1 4CA      -0.074600
     36 CAP         87.9620    29.2230    23.7620 c3         1 4CA       0.114300
     37 OAP         87.9300    30.3890    24.5350 oh         1 4CA      -0.776000
     38 C9P         86.5900    28.9860    23.1470 c          1 4CA       0.591100
     39 O9P         86.2270    27.8630    22.8180 o          1 4CA      -0.589100
     40 N8P         85.8170    30.0690    22.9820 ns         1 4CA      -0.520900
     41 C7P         84.5260    30.0080    22.3350 c3         1 4CA       0.125000
     42 C6P         84.6490    29.9620    20.8160 c3         1 4CA      -0.180400
     43 C5P         83.3090    29.8300    20.1260 c          1 4CA       0.622100
     44 O5P         82.2510    29.9890    20.7180 o          1 4CA      -0.629100
     45 N4P         83.3730    29.5590    18.8080 ns         1 4CA      -0.510900
     46 C3P         82.2070    29.4000    17.9760 c3         1 4CA       0.118000
     47 C2P         81.6660    27.9780    17.9390 c3         1 4CA       0.025600
     48 S1P         82.8130    26.7610    17.2440 ss         1 4CA      -0.357000
     49 C1B         82.8040    27.2240    15.4790 c3         1 4CA       0.073900
     50 C2B         81.4800    27.0080    14.8170 ca         1 4CA      -0.095300
     51 C3B         80.6430    28.0760    14.5180 ca         1 4CA      -0.065000
     52 C4B         79.4110    27.8800    13.9050 ca         1 4CA      -0.176000
     53 C5B         78.9950    26.5940    13.5790 ca         1 4CA       0.120100
     54 O2B         77.8170    26.3340    12.9750 oh         1 4CA      -0.543100
     55 C6B         79.8220    25.5110    13.8780 ca         1 4CA      -0.176000
     56 C7B         81.0430    25.7240    14.4920 ca         1 4CA      -0.065000
     57 H2A         82.1800    26.3520    21.9580 h5         1 4CA       0.006100
     58 H61A        86.5090    26.0100    19.0290 hn         1 4CA       0.474500
     59 H62A        85.0280    26.7530    18.5500 hn         1 4CA       0.474500
     60 H8A         87.9480    23.8620    23.1510 h5         1 4CA       0.115800
     61 H1D         84.5740    24.2090    24.9550 h2         1 4CA       0.073700
     62 H2D         86.0590    21.9800    24.1890 h1         1 4CA       0.037700
     63 HO2A        85.2770    21.1110    26.1520 ho         1 4CA       0.612000
     64 H3D         88.1110    22.7980    25.0810 h1         1 4CA       0.045700
     65 H4D         86.5290    23.8340    27.4670 h1         1 4CA       0.034700
     66 H51A        88.8490    24.1090    27.8030 h1         1 4CA       0.019200
     67 H52A        88.1000    25.6750    27.5030 h1         1 4CA       0.019200
     68 H121        91.1480    29.7520    22.5060 h1         1 4CA      -0.001800
     69 H122        90.3430    30.6260    23.7940 h1         1 4CA      -0.001800
     70 H131        88.3530    27.6560    21.3780 hc         1 4CA       0.026200
     71 H132        89.3720    27.0990    22.7010 hc         1 4CA       0.026200
     72 H133        90.0900    27.9200    21.3180 hc         1 4CA       0.026200
     73 H141        87.8770    30.1090    21.0530 hc         1 4CA       0.026200
     74 H142        89.5980    30.4150    20.9090 hc         1 4CA       0.026200
     75 H143        88.6440    31.3240    22.0760 hc         1 4CA       0.026200
     76 H10         88.1450    28.3400    24.3900 h1         1 4CA       0.121700
     77 HO1         88.6300    30.2730    25.2290 ho         1 4CA       0.548000
     78 HN8         86.1680    30.9620    23.2880 hn         1 4CA       0.324500
     79 H71         83.9610    30.8850    22.6440 h1         1 4CA       0.052200
     80 H72         83.9840    29.1340    22.6970 h1         1 4CA       0.052200
     81 H61         85.2970    29.1360    20.5150 hc         1 4CA       0.069200
     82 H62         85.1370    30.8750    20.4590 hc         1 4CA       0.069200
     83 HN4         84.2730    29.3730    18.3960 hn         1 4CA       0.319500
     84 H31         82.4550    29.7390    16.9700 h1         1 4CA       0.033700
     85 H32         81.4180    30.0600    18.3390 h1         1 4CA       0.033700
     86 H21         80.7310    27.9480    17.3760 h1         1 4CA       0.087200
     87 H22         81.4480    27.6280    18.9480 h1         1 4CA       0.087200
     88 H11         83.5750    26.5930    15.0330 h1         1 4CA       0.067700
     89 H12         83.1370    28.2570    15.3680 h1         1 4CA       0.067700
     90 H3B         80.9560    29.0850    14.7590 ha         1 4CA       0.120000
     91 H4B         78.7810    28.7330    13.6800 ha         1 4CA       0.112000
     92 HO2B        77.3320    27.1520    12.8170 ho         1 4CA       0.453000
     93 H6B         79.5040    24.5070    13.6250 ha         1 4CA       0.112000
     94 H7B         81.6720    24.8710    14.7190 ha         1 4CA       0.120000
@<TRIPOS>BOND
     1     1     2 ar  
     2     1     6 ar  
     3     2     3 ar  
     4     2    57 1   
     5     3     4 ar  
     6     4     5 ar  
     7     4    10 1   
     8     5     6 ar  
     9     5     8 1   
    10     6     7 1   
    11     7    58 1   
    12     7    59 1   
    13     8     9 2   
    14     9    10 1   
    15     9    60 1   
    16    10    11 1   
    17    11    12 1   
    18    11    21 1   
    19    11    61 1   
    20    12    13 1   
    21    12    14 1   
    22    12    62 1   
    23    13    63 1   
    24    14    15 1   
    25    14    20 1   
    26    14    64 1   
    27    15    16 1   
    28    16    17 1   
    29    16    18 1   
    30    16    19 1   
    31    20    21 1   
    32    20    22 1   
    33    20    65 1   
    34    22    23 1   
    35    22    66 1   
    36    22    67 1   
    37    23    24 1   
    38    24    25 1   
    39    24    26 1   
    40    24    27 1   
    41    27    28 1   
    42    28    29 1   
    43    28    30 1   
    44    28    31 1   
    45    31    33 1   
    46    32    33 1   
    47    32    34 1   
    48    32    35 1   
    49    32    36 1   
    50    33    68 1   
    51    33    69 1   
    52    34    70 1   
    53    34    71 1   
    54    34    72 1   
    55    35    73 1   
    56    35    74 1   
    57    35    75 1   
    58    36    37 1   
    59    36    38 1   
    60    36    76 1   
    61    37    77 1   
    62    38    39 2   
    63    38    40 1   
    64    40    41 1   
    65    40    78 1   
    66    41    42 1   
    67    41    79 1   
    68    41    80 1   
    69    42    43 1   
    70    42    81 1   
    71    42    82 1   
    72    43    44 2   
    73    43    45 1   
    74    45    46 1   
    75    45    83 1   
    76    46    47 1   
    77    46    84 1   
    78    46    85 1   
    79    47    48 1   
    80    47    86 1   
    81    47    87 1   
    82    48    49 1   
    83    49    50 1   
    84    49    88 1   
    85    49    89 1   
    86    50    51 ar  
    87    50    56 ar  
    88    51    52 ar  
    89    51    90 1   
    90    52    53 ar  
    91    52    91 1   
    92    53    54 1   
    93    53    55 ar  
    94    54    92 1   
    95    55    56 ar  
    96    55    93 1   
    97    56    94 1   
@<TRIPOS>SUBSTRUCTURE
     1 4CA         1 TEMP              0 ****  ****    0 ROOT
