@<TRIPOS>MOLECULE
4KW
   96    99     1     0     0
SMALL
abcg2


@<TRIPOS>ATOM
      1 O3          55.9430    50.4360    -0.4110 oh         1 4KW      -0.683000
      2 C4          58.3870    45.9020    -0.5030 c3         1 4KW      -0.178400
      3 C5          58.1670    47.1120     0.4100 c3         1 4KW       0.131000
      4 O4          57.2600    50.0410    -4.4050 os         1 4KW      -0.595400
      5 C6          57.6430    48.8910    -1.2000 c          1 4KW       0.561100
      6 N1          56.1880    44.9190    -0.2740 ns         1 4KW      -0.525900
      7 C7          56.6550    50.0090    -1.5520 c3         1 4KW       0.099300
      8 C8          55.6230    49.6270    -2.6410 c3         1 4KW      -0.052000
      9 C9          54.6840    48.5150    -2.1670 c3         1 4KW      -0.080600
     10 O5          58.2340    51.7510    -5.9130 o          1 4KW      -0.842500
     11 C10         54.7920    50.8720    -2.9690 c3         1 4KW      -0.080600
     12 O6          55.7740    50.9600    -6.3120 o          1 4KW      -0.842500
     13 C11         56.3120    49.1200    -3.9130 c3         1 4KW       0.245600
     14 C12         57.2100    51.6460    -9.3210 c3         1 4KW       0.213600
     15 N3          61.0540    51.8360   -10.6540 na         1 4KW      -0.254300
     16 C13         57.6120    52.2350   -10.6550 c5         1 4KW       0.105300
     17 O7          57.7380    49.3700    -6.7540 os         1 4KW      -0.724800
     18 C14         59.8210    52.0720   -11.3760 c5         1 4KW       0.278300
     19 O8          59.0050    48.3460    -8.6710 o          1 4KW      -0.858500
     20 C15         61.3210    50.8910    -9.6950 cc         1 4KW       0.493700
     21 N4          62.5030    51.0120    -9.1660 nd         1 4KW      -0.625100
     22 O14         55.8190    52.7320   -14.8220 o          1 4KW      -0.895167
     23 P3          55.7170    51.8940   -13.5560 p5         1 4KW       1.275900
     24 O15         54.9530    52.5390   -12.4000 o          1 4KW      -0.895167
     25 O16         55.3980    50.4180   -13.7720 o          1 4KW      -0.895167
     26 O13         57.3630    51.9000   -13.0370 os         1 4KW      -0.577400
     27 C21         57.6400    51.2560   -11.8370 c5         1 4KW       0.241300
     28 C20         59.0980    50.7950   -11.8240 c5         1 4KW       0.107300
     29 O12         59.5270    50.3190   -13.0670 oh         1 4KW      -0.670000
     30 C19         62.1630    52.6330   -10.7140 ca         1 4KW       0.100500
     31 C16         63.0490    52.1030    -9.7920 ca         1 4KW      -0.077600
     32 C17         64.2860    52.7580    -9.6630 ca         1 4KW       0.406900
     33 N7          65.2370    52.3460    -8.8210 nv         1 4KW      -1.098900
     34 N5          64.5100    53.8330   -10.4280 nb         1 4KW      -0.351000
     35 C18         63.5630    54.2310   -11.2740 ca         1 4KW       0.111900
     36 N6          62.3720    53.7000   -11.4840 nb         1 4KW      -0.164000
     37 O11         58.9310    52.7890   -10.5720 os         1 4KW      -0.457000
     38 O10         58.1440    50.6740    -8.9120 os         1 4KW      -0.653400
     39 P2          57.7810    49.1650    -8.3890 p5         1 4KW       1.477800
     40 O9          56.4340    48.7460    -8.8860 o          1 4KW      -0.858500
     41 P1          57.1900    50.6820    -5.9090 p5         1 4KW       1.450800
     42 C1          57.1060    45.4030    -1.1340 c          1 4KW       0.592100
     43 O1          56.9080    45.4600    -2.3400 o          1 4KW      -0.536100
     44 C2          54.9070    44.4130    -0.7040 c3         1 4KW       0.111000
     45 C3          55.0040    42.9690    -1.1900 c3         1 4KW       0.034600
     46 S1          53.4440    42.3640    -1.8730 ss         1 4KW      -0.340600
     47 C22         52.5390    41.9520    -0.3970 c          1 4KW       0.590900
     48 O17         53.0340    42.0620     0.7010 o          1 4KW      -0.561100
     49 C27         51.1540    41.4960    -0.6600 ce         1 4KW      -0.188400
     50 C25         50.3440    41.3450     0.3970 c2         1 4KW      -0.191200
     51 C23         48.9080    40.9590     0.3000 c6         1 4KW      -0.040200
     52 C24         48.3700    41.0520    -1.1210 c6         1 4KW      -0.073400
     53 C26         49.3740    40.4680    -2.1030 c6         1 4KW      -0.070400
     54 C28         50.6860    41.2470    -2.0700 c6         1 4KW      -0.033200
     55 H1          56.5320    50.9580     0.1430 ho         1 4KW       0.416000
     56 H2          58.8450    45.1070     0.0920 hc         1 4KW       0.072700
     57 H3          59.0800    46.1520    -1.3030 hc         1 4KW       0.072700
     58 H4          57.7110    46.7980     1.3470 h1         1 4KW       0.019200
     59 H5          59.1420    47.5350     0.6620 h1         1 4KW       0.019200
     60 H6          56.4320    44.8150     0.6980 hn         1 4KW       0.294500
     61 H7          57.2670    50.8240    -1.9560 h1         1 4KW       0.105700
     62 H8          56.4690    48.3750     0.3580 hn         1 4KW       0.317500
     63 H9          54.1630    48.7900    -1.2510 hc         1 4KW       0.030533
     64 H10         53.9230    48.3260    -2.9280 hc         1 4KW       0.030533
     65 H11         55.2080    47.5760    -1.9910 hc         1 4KW       0.030533
     66 H13         54.1980    51.1890    -2.1130 hc         1 4KW       0.030533
     67 H14         55.4160    51.7120    -3.2740 hc         1 4KW       0.030533
     68 H15         54.1040    50.6590    -3.7880 hc         1 4KW       0.030533
     69 H16         55.5280    48.9160    -4.6490 h1         1 4KW       0.036700
     70 H17         56.8140    48.1680    -3.7130 h1         1 4KW       0.036700
     71 H18         57.1700    52.4400    -8.5690 h1         1 4KW       0.052200
     72 H19         56.2000    51.2380    -9.4150 h1         1 4KW       0.052200
     73 H20         56.9030    53.0350   -10.8830 h1         1 4KW       0.109700
     74 H21         60.1060    52.6580   -12.2570 h2         1 4KW       0.080700
     75 H23         60.6060    50.1270    -9.4260 h5         1 4KW       0.147800
     76 H26         56.9670    50.4080   -11.6550 h1         1 4KW       0.087700
     77 H27         59.2000    50.0210   -11.0570 h1         1 4KW       0.063700
     78 H28         60.3220    49.7970   -12.9290 ho         1 4KW       0.448000
     79 H29         66.0760    52.8880    -8.7050 hn         1 4KW       0.480000
     80 H30         65.0670    51.5920    -8.1790 hn         1 4KW       0.480000
     81 H31         63.8070    55.1080   -11.8650 h5         1 4KW       0.007100
     82 H32         54.2180    44.4830     0.1360 h1         1 4KW       0.067700
     83 H33         54.5170    45.0480    -1.4990 h1         1 4KW       0.067700
     84 H34         55.7170    42.8930    -2.0120 h1         1 4KW       0.082200
     85 H35         55.3350    42.3020    -0.3950 h1         1 4KW       0.082200
     86 H37         50.7360    41.5200     1.3930 ha         1 4KW       0.182000
     87 H39         48.3260    41.5840     0.9830 hc         1 4KW       0.036200
     88 H40         48.8010    39.9380     0.6850 hc         1 4KW       0.036200
     89 H41         48.1840    42.1000    -1.3740 hc         1 4KW       0.038200
     90 H42         47.4110    40.5360    -1.1930 hc         1 4KW       0.038200
     91 H43         48.9750    40.4750    -3.1190 hc         1 4KW       0.036700
     92 H44         49.5660    39.4220    -1.8480 hc         1 4KW       0.036700
     93 H45         51.4450    40.6910    -2.6280 hc         1 4KW       0.066700
     94 H46         50.5640    42.2010    -2.5940 hc         1 4KW       0.066700
     95 N2          57.3060    48.1310    -0.1470 ns         1 4KW      -0.532900
     96 O2          58.6780    48.7320    -1.8320 o          1 4KW      -0.544100
@<TRIPOS>BOND
     1     1     7 1   
     2     1    55 1   
     3     2     3 1   
     4     2    42 1   
     5     2    56 1   
     6     2    57 1   
     7     3    58 1   
     8     3    59 1   
     9     3    95 1   
    10     4    13 1   
    11     4    41 1   
    12     5     7 1   
    13     5    95 1   
    14     5    96 2   
    15     6    42 1   
    16     6    44 1   
    17     6    60 1   
    18     7     8 1   
    19     7    61 1   
    20     8     9 1   
    21     8    11 1   
    22     8    13 1   
    23     9    63 1   
    24     9    64 1   
    25     9    65 1   
    26    10    41 1   
    27    11    66 1   
    28    11    67 1   
    29    11    68 1   
    30    12    41 1   
    31    13    69 1   
    32    13    70 1   
    33    14    16 1   
    34    14    38 1   
    35    14    71 1   
    36    14    72 1   
    37    15    18 1   
    38    15    20 1   
    39    15    30 1   
    40    16    27 1   
    41    16    37 1   
    42    16    73 1   
    43    17    39 1   
    44    17    41 1   
    45    18    28 1   
    46    18    37 1   
    47    18    74 1   
    48    19    39 1   
    49    20    21 2   
    50    20    75 1   
    51    21    31 1   
    52    22    23 1   
    53    23    24 1   
    54    23    25 1   
    55    23    26 1   
    56    26    27 1   
    57    27    28 1   
    58    27    76 1   
    59    28    29 1   
    60    28    77 1   
    61    29    78 1   
    62    30    31 ar  
    63    30    36 ar  
    64    31    32 ar  
    65    32    33 1   
    66    32    34 ar  
    67    33    79 1   
    68    33    80 1   
    69    34    35 ar  
    70    35    36 ar  
    71    35    81 1   
    72    38    39 1   
    73    39    40 1   
    74    42    43 2   
    75    44    45 1   
    76    44    82 1   
    77    44    83 1   
    78    45    46 1   
    79    45    84 1   
    80    45    85 1   
    81    46    47 1   
    82    47    48 2   
    83    47    49 1   
    84    49    50 2   
    85    49    54 1   
    86    50    51 1   
    87    50    86 1   
    88    51    52 1   
    89    51    87 1   
    90    51    88 1   
    91    52    53 1   
    92    52    89 1   
    93    52    90 1   
    94    53    54 1   
    95    53    91 1   
    96    53    92 1   
    97    54    93 1   
    98    54    94 1   
    99    62    95 1   
@<TRIPOS>SUBSTRUCTURE
     1 4KW         1 TEMP              0 ****  ****    0 ROOT
