@<TRIPOS>MOLECULE
4OW
   72    75     1     0     0
SMALL
abcg2


@<TRIPOS>ATOM
      1 C10         13.9820    -9.8290    -4.2610 ca         1 4OW      -0.128300
      2 C13         12.7710   -11.5520    -7.5090 c6         1 4OW       0.165800
      3 C15         13.2450   -13.7360    -8.3980 c3         1 4OW       0.153100
      4 C17         14.3510   -12.1590    -5.1670 c6         1 4OW      -0.071400
      5 C20         13.7390    -8.4280    -2.2610 ca         1 4OW      -0.166000
      6 C22         12.9530    -5.1660     0.1380 ca         1 4OW       0.418900
      7 C24         10.7280    -6.1250    -0.3990 ca         1 4OW       0.331000
      8 C26          8.7650    -7.5220    -0.3660 ca         1 4OW      -0.057000
      9 C02         13.6880    -4.2010     0.8640 ca         1 4OW      -0.289300
     10 C03         15.0480    -4.2130     0.6170 ca         1 4OW       0.169900
     11 C05         14.8660    -5.9240    -0.8500 ca         1 4OW       0.417900
     12 C07         14.9440    -7.7780    -2.5370 ca         1 4OW       0.339000
     13 C08         15.6730    -8.1750    -3.6670 ca         1 4OW      -0.177000
     14 C09         15.1960    -9.1750    -4.4980 ca         1 4OW      -0.056000
     15 C11         13.4550   -10.9120    -5.1700 c6         1 4OW      -0.009400
     16 C12         13.2670   -10.4240    -6.6140 c6         1 4OW      -0.071400
     17 C16         13.8150   -13.2200    -6.1200 c6         1 4OW       0.165800
     18 C18         13.3050    -9.4180    -3.1230 ca         1 4OW       0.186000
     19 C25          9.6310    -6.6570     0.2840 ca         1 4OW      -0.169000
     20 C27          8.9780    -7.8530    -1.6960 ca         1 4OW       0.056000
     21 C29         10.0570    -7.3090    -2.4020 ca         1 4OW       0.324000
     22 C32          9.1500    -5.6560    -5.3970 c3         1 4OW      -0.267000
     23 C33          8.0340    -6.6100    -5.8170 c3         1 4OW      -0.082433
     24 C34          9.5590    -4.7390    -6.5560 c3         1 4OW      -0.082433
     25 C35          8.7490    -4.8390    -4.1680 c3         1 4OW      -0.082433
     26 C38         10.9260    -6.4510    -1.7380 ca         1 4OW      -0.134000
     27 F19         12.1270   -10.0250    -2.8010 f          1 4OW      -0.189000
     28 N04         15.6670    -5.0480    -0.2280 nb         1 4OW      -0.259000
     29 N06         15.4890    -6.7780    -1.7270 nu         1 4OW      -0.931900
     30 N14         13.6770   -12.6970    -7.4780 n3         1 4OW      -0.721600
     31 N21         13.5490    -6.0160    -0.6960 nb         1 4OW      -0.291000
     32 N30         10.2760    -7.6660    -3.7490 nu         1 4OW      -0.899100
     33 O36         10.9220    -7.5240    -6.1110 o          1 4OW      -0.529500
     34 O37         11.6780    -5.7410    -4.5480 o          1 4OW      -0.529500
     35 S31         10.6440    -6.6430    -4.9980 s6         1 4OW       1.200100
     36 CL28         7.8830    -8.9660    -2.4850 cl         1 4OW      -0.208000
     37 H1          12.6930   -11.2040    -8.5420 h1         1 4OW       0.029950
     38 H2          11.7550   -11.8530    -7.1910 h1         1 4OW       0.029950
     39 H3          13.9590   -14.5610    -8.3880 h1         1 4OW       0.028700
     40 H4          12.2510   -14.1400    -8.1390 h1         1 4OW       0.028700
     41 H5          13.1930   -13.3340    -9.4120 h1         1 4OW       0.028700
     42 H6          14.4130   -12.5720    -4.1580 hc         1 4OW       0.053950
     43 H7          15.3640   -11.8810    -5.4710 hc         1 4OW       0.053950
     44 H8          13.1410    -8.1650    -1.4070 ha         1 4OW       0.159000
     45 H9           7.9240    -7.9500     0.1620 ha         1 4OW       0.132000
     46 H10         12.5470    -3.7470     2.6400 hc         1 4OW       0.039700
     47 H11         13.7960    -2.5670     2.2380 hc         1 4OW       0.039700
     48 H12         12.2930    -2.6200     1.3090 hc         1 4OW       0.039700
     49 H13         15.6840    -3.4970     1.1300 h4         1 4OW       0.021100
     50 H14         16.6140    -7.6870    -3.8910 ha         1 4OW       0.116000
     51 H15         15.7820    -9.4520    -5.3650 ha         1 4OW       0.120000
     52 H16         12.4730   -11.2140    -4.7980 hc         1 4OW       0.057700
     53 H17         14.2190   -10.0520    -7.0030 hc         1 4OW       0.053950
     54 H18         12.5560    -9.5960    -6.6370 hc         1 4OW       0.053950
     55 H19         12.8410   -13.5890    -5.7470 h1         1 4OW       0.029950
     56 H20         14.4920   -14.0760    -6.1480 h1         1 4OW       0.029950
     57 H21          9.4690    -6.4110     1.3250 ha         1 4OW       0.120000
     58 H22          7.7500    -7.2820    -5.0060 hc         1 4OW       0.052367
     59 H23          7.1590    -6.0130    -6.0790 hc         1 4OW       0.052367
     60 H24          8.3180    -7.2010    -6.6870 hc         1 4OW       0.052367
     61 H25         10.3530    -4.0550    -6.2600 hc         1 4OW       0.052367
     62 H26          9.8860    -5.3130    -7.4230 hc         1 4OW       0.052367
     63 H27          8.6860    -4.1510    -6.8430 hc         1 4OW       0.052367
     64 H28          8.3850    -5.4720    -3.3610 hc         1 4OW       0.052367
     65 H29          9.5760    -4.2340    -3.8000 hc         1 4OW       0.052367
     66 H30          7.9390    -4.1700    -4.4620 hc         1 4OW       0.052367
     67 H31         11.7650    -6.0490    -2.2740 ha         1 4OW       0.179000
     68 H32         16.4610    -6.5580    -1.8870 hn         1 4OW       0.513000
     69 H34         11.1950    -4.7700     1.0710 hn         1 4OW       0.504000
     70 H35          9.7690    -8.4800    -4.0710 hn         1 4OW       0.509000
     71 N23         11.5940    -5.2540     0.2820 nu         1 4OW      -0.947900
     72 C01         13.0460    -3.2340     1.8120 c3         1 4OW      -0.022800
@<TRIPOS>BOND
     1     1    14 ar  
     2     1    15 1   
     3     1    18 ar  
     4     2    16 1   
     5     2    30 1   
     6     2    37 1   
     7     2    38 1   
     8     3    30 1   
     9     3    39 1   
    10     3    40 1   
    11     3    41 1   
    12     4    15 1   
    13     4    17 1   
    14     4    42 1   
    15     4    43 1   
    16     5    12 ar  
    17     5    18 ar  
    18     5    44 1   
    19     6     9 ar  
    20     6    31 ar  
    21     6    71 1   
    22     7    19 ar  
    23     7    26 ar  
    24     7    71 1   
    25     8    19 ar  
    26     8    20 ar  
    27     8    45 1   
    28     9    10 ar  
    29     9    72 1   
    30    10    28 ar  
    31    10    49 1   
    32    11    28 ar  
    33    11    29 1   
    34    11    31 ar  
    35    12    13 ar  
    36    12    29 1   
    37    13    14 ar  
    38    13    50 1   
    39    14    51 1   
    40    15    16 1   
    41    15    52 1   
    42    16    53 1   
    43    16    54 1   
    44    17    30 1   
    45    17    55 1   
    46    17    56 1   
    47    18    27 1   
    48    19    57 1   
    49    20    21 ar  
    50    20    36 1   
    51    21    26 ar  
    52    21    32 1   
    53    22    23 1   
    54    22    24 1   
    55    22    25 1   
    56    22    35 1   
    57    23    58 1   
    58    23    59 1   
    59    23    60 1   
    60    24    61 1   
    61    24    62 1   
    62    24    63 1   
    63    25    64 1   
    64    25    65 1   
    65    25    66 1   
    66    26    67 1   
    67    29    68 1   
    68    32    35 1   
    69    32    70 1   
    70    33    35 2   
    71    34    35 2   
    72    46    72 1   
    73    47    72 1   
    74    48    72 1   
    75    69    71 1   
@<TRIPOS>SUBSTRUCTURE
     1 4OW         1 TEMP              0 ****  ****    0 ROOT
