@<TRIPOS>MOLECULE
4UU
   53    56     1     0     0
SMALL
abcg2


@<TRIPOS>ATOM
      1 C2           3.1860    26.8910    15.3450 ca         1 4UU       0.169900
      2 O34         -1.6520    32.2700    14.6410 o          1 4UU      -0.484000
      3 CAR         -1.0230    32.5150    15.6420 c          1 4UU       0.647300
      4 CAQ          0.4270    32.2920    15.7880 ce         1 4UU      -0.230200
      5 CAP          1.1120    31.6760    14.8220 cf         1 4UU      -0.160000
      6 CAK          2.5350    31.3510    14.8370 cf         1 4UU      -0.067000
      7 CAJ          2.9990    30.3350    13.9020 cf         1 4UU      -0.086000
      8 CAD          4.2740    29.9190    13.8300 ce         1 4UU      -0.322200
      9 CAH          3.4310    31.9360    15.6500 c2         1 4UU      -0.169200
     10 CAS          4.8680    31.5770    15.6440 c6         1 4UU      -0.160200
     11 CAC          5.3000    30.4800    14.6990 c          1 4UU       0.582300
     12 OBF          6.4570    30.1000    14.6680 o          1 4UU      -0.556100
     13 O2P         -1.5450    33.0190    16.7570 os         1 4UU      -0.558500
     14 P           -3.2130    33.0890    17.0980 p5         1 4UU       1.402800
     15 O1P         -3.2310    33.5720    18.5070 o          1 4UU      -0.787000
     16 O3P         -3.9420    33.7650    15.9950 o          1 4UU      -0.787000
     17 C5          -3.0640    30.5900    17.9810 c3         1 4UU       0.235600
     18 C4          -2.6730    29.3020    17.2990 c5         1 4UU       0.149300
     19 C3          -2.2470    28.1990    18.2620 c5         1 4UU       0.085300
     20 O3          -3.3690    27.5370    18.7740 oh         1 4UU      -0.703000
     21 C7          -1.3770    27.3230    17.3510 c5         1 4UU       0.092300
     22 O2          -2.1720    26.5060    16.5360 oh         1 4UU      -0.703000
     23 O4          -1.5310    29.5100    16.4770 os         1 4UU      -0.421000
     24 C1          -0.7140    28.3740    16.4520 c5         1 4UU       0.312300
     25 N9           0.6200    28.7320    16.8990 na         1 4UU      -0.291300
     26 C10          1.7730    28.1490    16.4590 ca         1 4UU       0.122500
     27 N3           1.9190    27.2350    15.5020 nb         1 4UU      -0.215000
     28 C8           0.9860    29.6040    17.8870 cc         1 4UU       0.425700
     29 N7           2.2680    29.6210    18.1110 nd         1 4UU      -0.572100
     30 C9           2.7820    28.7080    17.2270 ca         1 4UU      -0.096600
     31 C6           4.0850    28.2420    16.9750 ca         1 4UU       0.442900
     32 N1           4.2490    27.3250    16.0150 nb         1 4UU      -0.300000
     33 N6           5.1510    28.6650    17.6600 nv         1 4UU      -1.073900
     34 H1           3.3890    26.1560    14.5740 h5         1 4UU       0.040100
     35 H2           0.8940    32.5960    16.7170 ha         1 4UU       0.187000
     36 H3           0.5680    31.3510    13.9400 ha         1 4UU       0.195000
     37 H4           2.2640    29.8930    13.2390 ha         1 4UU       0.188000
     38 H5           4.5670    29.1520    13.1250 ha         1 4UU       0.197000
     39 H6           3.1310    32.7190    16.3370 ha         1 4UU       0.191000
     40 H7           5.1770    31.3040    16.6590 hc         1 4UU       0.078200
     41 H8           5.4590    32.4740    15.4210 hc         1 4UU       0.078200
     42 H10         -2.2040    30.9890    18.5280 h1         1 4UU       0.033200
     43 H11         -3.8420    30.3690    18.7190 h1         1 4UU       0.033200
     44 H12         -3.5150    28.9450    16.6910 h1         1 4UU       0.091700
     45 H13         -1.6270    28.6210    19.0640 h1         1 4UU       0.050700
     46 H14         -3.1260    27.0950    19.5940 ho         1 4UU       0.505000
     47 H15         -0.6320    26.7410    17.9080 h1         1 4UU       0.057700
     48 H16         -2.9020    26.1740    17.0740 ho         1 4UU       0.520000
     49 H17         -0.6010    27.9890    15.4350 h2         1 4UU       0.122700
     50 H18          0.2650    30.2150    18.4070 h5         1 4UU       0.082800
     51 H19          6.0710    28.3440    17.4120 hn         1 4UU       0.504500
     52 H20          5.0670    29.3750    18.3660 hn         1 4UU       0.504500
     53 O5          -3.5650    31.4990    17.0150 os         1 4UU      -0.582400
@<TRIPOS>BOND
     1     1    27 ar  
     2     1    32 ar  
     3     1    34 1   
     4     2     3 2   
     5     3     4 1   
     6     3    13 1   
     7     4     5 2   
     8     4    35 1   
     9     5     6 1   
    10     5    36 1   
    11     6     7 1   
    12     6     9 2   
    13     7     8 2   
    14     7    37 1   
    15     8    11 1   
    16     8    38 1   
    17     9    10 1   
    18     9    39 1   
    19    10    11 1   
    20    10    40 1   
    21    10    41 1   
    22    11    12 2   
    23    13    14 1   
    24    14    15 1   
    25    14    16 1   
    26    14    53 1   
    27    17    18 1   
    28    17    42 1   
    29    17    43 1   
    30    17    53 1   
    31    18    19 1   
    32    18    23 1   
    33    18    44 1   
    34    19    20 1   
    35    19    21 1   
    36    19    45 1   
    37    20    46 1   
    38    21    22 1   
    39    21    24 1   
    40    21    47 1   
    41    22    48 1   
    42    23    24 1   
    43    24    25 1   
    44    24    49 1   
    45    25    26 1   
    46    25    28 1   
    47    26    27 ar  
    48    26    30 ar  
    49    28    29 2   
    50    28    50 1   
    51    29    30 1   
    52    30    31 ar  
    53    31    32 ar  
    54    31    33 1   
    55    33    51 1   
    56    33    52 1   
@<TRIPOS>SUBSTRUCTURE
     1 4UU         1 TEMP              0 ****  ****    0 ROOT
