@<TRIPOS>MOLECULE
A1A
   34    35     1     0     0
SMALL
abcg2


@<TRIPOS>ATOM
      1 C11        263.2190   351.3770   -59.8750 cp         1 A1A      -0.155500
      2 C12        263.6840   351.1100   -58.5960 ca         1 A1A       0.172000
      3 C13        264.8610   350.4070   -58.4060 ca         1 A1A       0.122000
      4 C14        265.5980   349.9420   -59.4730 ca         1 A1A      -0.118000
      5 C15        265.1490   350.1830   -60.7700 ca         1 A1A      -0.121300
      6 C16        263.9710   350.8940   -60.9480 ca         1 A1A      -0.080000
      7 C17        265.9750   349.7330   -61.9540 c3         1 A1A       0.206100
      8 C02        259.8010   352.5610   -59.5900 ca         1 A1A       0.604900
      9 C03        259.7150   353.5790   -60.5570 ca         1 A1A      -0.225000
     10 C04        260.8240   353.8800   -61.3190 ca         1 A1A      -0.000300
     11 C05        261.9970   353.1520   -61.0910 ca         1 A1A      -0.207000
     12 C06        261.9890   352.1650   -60.1200 cp         1 A1A       0.447500
     13 C19        266.6080   351.9500   -62.7460 c3         1 A1A       0.145100
     14 F12        263.0390   351.5530   -57.5140 f          1 A1A      -0.147000
     15 F13        265.2790   350.1920   -57.1530 f          1 A1A      -0.162000
     16 N01        260.9190   351.8730   -59.3810 nb         1 A1A      -0.731000
     17 N02        258.7100   352.2090   -58.8520 nv         1 A1A      -1.054900
     18 N18        267.0470   350.6350   -62.3320 n7         1 A1A      -0.860400
     19 H1         266.5130   349.3910   -59.2900 ha         1 A1A       0.134000
     20 H2         263.6090   351.0720   -61.9540 ha         1 A1A       0.124000
     21 H3         265.3180   349.6020   -62.8190 h1         1 A1A       0.061700
     22 H4         266.4140   348.7560   -61.7400 h1         1 A1A       0.061700
     23 H5         258.7860   354.1180   -60.6930 ha         1 A1A       0.121000
     24 H6         262.8970   353.3720   -61.6500 ha         1 A1A       0.124000
     25 H7         260.7990   354.5000   -63.3660 hc         1 A1A       0.048033
     26 H8         259.8900   355.5600   -62.2900 hc         1 A1A       0.048033
     27 H9         261.6560   355.5980   -62.2990 hc         1 A1A       0.048033
     28 H10        267.4750   352.5480   -63.0280 h1         1 A1A       0.030700
     29 H11        265.9710   351.8630   -63.6280 h1         1 A1A       0.030700
     30 H12        266.0460   352.5140   -61.9910 h1         1 A1A       0.030700
     31 H13        258.8900   351.6840   -58.0120 hn         1 A1A       0.473000
     32 H14        257.9650   352.8810   -58.7700 hn         1 A1A       0.473000
     33 H15        267.7090   350.7170   -61.5700 hn         1 A1A       0.413000
     34 C07        260.7860   354.9460   -62.3700 c3         1 A1A      -0.053800
@<TRIPOS>BOND
     1     1     2 ar  
     2     1     6 ar  
     3     1    12 1   
     4     2     3 ar  
     5     2    14 1   
     6     3     4 ar  
     7     3    15 1   
     8     4     5 ar  
     9     4    19 1   
    10     5     6 ar  
    11     5     7 1   
    12     6    20 1   
    13     7    18 1   
    14     7    21 1   
    15     7    22 1   
    16     8     9 ar  
    17     8    16 ar  
    18     8    17 1   
    19     9    10 ar  
    20     9    23 1   
    21    10    11 ar  
    22    10    34 1   
    23    11    12 ar  
    24    11    24 1   
    25    12    16 ar  
    26    13    18 1   
    27    13    28 1   
    28    13    29 1   
    29    13    30 1   
    30    17    31 1   
    31    17    32 1   
    32    18    33 1   
    33    25    34 1   
    34    26    34 1   
    35    27    34 1   
@<TRIPOS>SUBSTRUCTURE
     1 A1A         1 TEMP              0 ****  ****    0 ROOT
