@<TRIPOS>MOLECULE
A1A
   16    16     1     0     0
SMALL
abcg2


@<TRIPOS>ATOM
      1 C01         11.8250     5.2680     7.8060 c3         1 A1A       0.014200
      2 C02         11.5730     4.3850     8.9830 cc         1 A1A      -0.320300
      3 C04         10.5660     2.9310    10.7170 cc         1 A1A      -0.184000
      4 C05         11.9090     3.0820    10.9020 cd         1 A1A      -0.184600
      5 C06         12.6420     2.4390    12.0600 c          1 A1A       0.734600
      6 C08         12.4930     3.9290     9.8920 cd         1 A1A       0.290000
      7 N09         13.8520     4.2040     9.8170 nv         1 A1A      -1.054000
      8 O07         11.9740     1.7010    12.8050 o          1 A1A      -0.723500
      9 S03          9.9930     3.7970     9.3620 ss         1 A1A       0.043000
     10 H011        11.1040     5.0970     7.0070 hc         1 A1A       0.019700
     11 H012        11.7810     6.3300     8.0610 hc         1 A1A       0.019700
     12 H013        12.8170     5.0750     7.3940 hc         1 A1A       0.019700
     13 H041         9.8860     2.3570    11.3260 h4         1 A1A       0.152000
     14 H092        14.0690     5.1520     9.5520 hn         1 A1A       0.449000
     15 H091        14.3130     3.9310    10.6770 hn         1 A1A       0.449000
     16 O1          13.8600     2.7110    12.1780 o          1 A1A      -0.723500
@<TRIPOS>BOND
     1     1     2 1   
     2     1    10 1   
     3     1    11 1   
     4     1    12 1   
     5     2     6 2   
     6     2     9 1   
     7     3     4 2   
     8     3     9 1   
     9     3    13 1   
    10     4     5 1   
    11     4     6 1   
    12     5     8 1   
    13     5    16 1   
    14     6     7 1   
    15     7    14 1   
    16     7    15 1   
@<TRIPOS>SUBSTRUCTURE
     1 A1A         1 TEMP              0 ****  ****    0 ROOT
