@<TRIPOS>MOLECULE
A1A
   39    42     1     0     0
SMALL
abcg2


@<TRIPOS>ATOM
      1 N2          14.4270     0.6580     1.6270 nu         1 A1A      -0.681100
      2 C3          14.1680    -2.4410    -0.2200 c5         1 A1A      -0.082400
      3 C6          15.1010    -0.3070    -1.2300 c3         1 A1A      -0.100600
      4 C9          15.2940     1.7130     4.9910 ca         1 A1A       0.200500
      5 C12         15.3990     3.8950     4.5540 ca         1 A1A       0.008800
      6 C14         15.3630     5.9990     3.5140 ca         1 A1A       0.193000
      7 C1          12.7680    -0.8970     0.9590 c          1 A1A       0.565000
      8 C10         14.9860     1.8600     3.6320 cp         1 A1A      -0.245000
      9 C11         15.0520     3.2670     3.3370 cp         1 A1A      -0.064000
     10 C13         15.5600     5.2690     4.6660 ca         1 A1A      -0.176000
     11 C15         15.0220     5.4280     2.2930 ca         1 A1A      -0.173000
     12 C16         14.8670     4.0560     2.2040 ca         1 A1A      -0.044000
     13 C2          12.7060    -2.0600     0.0010 c5         1 A1A      -0.162400
     14 C4          14.9600    -1.1490     0.0360 c5         1 A1A       0.140400
     15 C5          16.3210    -1.4170     0.6540 c3         1 A1A      -0.100600
     16 C7          14.7170     0.6640     2.9540 ca         1 A1A       0.438900
     17 C8          15.0770    -0.4830     4.8930 ca         1 A1A       0.185900
     18 N1          14.0610    -0.4800     0.9870 n          1 A1A      -0.248200
     19 N3          14.7660    -0.4970     3.6030 nb         1 A1A      -0.261000
     20 N4          15.3490     0.5620     5.6530 nb         1 A1A      -0.235000
     21 N5          15.5360     2.9370     5.5270 na         1 A1A      -0.324300
     22 H11         14.1900     1.5260     1.1710 hn         1 A1A       0.509000
     23 H4          14.3630    -2.8400    -1.2140 hc         1 A1A       0.061700
     24 H3          14.4640    -3.2000     0.5070 hc         1 A1A       0.061700
     25 H10         15.5300     0.6710    -1.0050 hc         1 A1A       0.046700
     26 H9          15.7620    -0.8020    -1.9420 hc         1 A1A       0.046700
     27 H8          14.1360    -0.1520    -1.7170 hc         1 A1A       0.046700
     28 H14         15.8270     5.7460     5.6000 ha         1 A1A       0.138000
     29 H15         14.8810     6.0580     1.4240 ha         1 A1A       0.133000
     30 H16         14.6070     3.6250     1.2460 ha         1 A1A       0.111000
     31 H1          12.2230    -1.7170    -0.9190 hc         1 A1A       0.078700
     32 H2          12.0960    -2.8690     0.4020 hc         1 A1A       0.078700
     33 H5          16.2300    -1.9720     1.5870 hc         1 A1A       0.046700
     34 H7          16.9240    -2.0070    -0.0380 hc         1 A1A       0.046700
     35 H6          16.8600    -0.4900     0.8530 hc         1 A1A       0.046700
     36 H12         15.1070    -1.4520     5.3800 h5         1 A1A       0.049100
     37 H13         15.7810     3.1070     6.4900 hn         1 A1A       0.370000
     38 F1          15.5090     7.3320     3.5730 f          1 A1A      -0.177000
     39 O1          11.8580    -0.3880     1.5800 o          1 A1A      -0.529000
@<TRIPOS>BOND
     1     1    16 1   
     2     1    18 1   
     3     1    22 1   
     4     2    13 1   
     5     2    14 1   
     6     2    23 1   
     7     2    24 1   
     8     3    14 1   
     9     3    25 1   
    10     3    26 1   
    11     3    27 1   
    12     4     8 ar  
    13     4    20 ar  
    14     4    21 1   
    15     5     9 ar  
    16     5    10 ar  
    17     5    21 1   
    18     6    10 ar  
    19     6    11 ar  
    20     6    38 1   
    21     7    13 1   
    22     7    18 1   
    23     7    39 2   
    24     8     9 1   
    25     8    16 ar  
    26     9    12 ar  
    27    10    28 1   
    28    11    12 ar  
    29    11    29 1   
    30    12    30 1   
    31    13    31 1   
    32    13    32 1   
    33    14    15 1   
    34    14    18 1   
    35    15    33 1   
    36    15    34 1   
    37    15    35 1   
    38    16    19 ar  
    39    17    19 ar  
    40    17    20 ar  
    41    17    36 1   
    42    21    37 1   
@<TRIPOS>SUBSTRUCTURE
     1 A1A         1 TEMP              0 ****  ****    0 ROOT
