@<TRIPOS>MOLECULE
A1A
   37    38     1     0     0
SMALL
abcg2


@<TRIPOS>ATOM
      1 C11        -22.8000    -1.6170    24.1120 cp         1 A1A      -0.137500
      2 C12        -22.4100    -2.9490    24.2380 ca         1 A1A      -0.090000
      3 C02        -25.6490     0.3040    22.9690 ca         1 A1A       0.604900
      4 C03        -26.1860    -0.4510    21.9120 ca         1 A1A      -0.229000
      5 C04        -25.5770    -1.6360    21.5580 ca         1 A1A       0.000700
      6 C05        -24.4510    -2.0430    22.2820 ca         1 A1A      -0.207000
      7 C06        -23.9940    -1.2440    23.3160 cp         1 A1A       0.453500
      8 C13        -21.2820    -3.2560    24.9800 ca         1 A1A       0.108000
      9 C14        -20.5310    -2.2800    25.6090 ca         1 A1A      -0.073000
     10 C15        -20.9180    -0.9480    25.4910 ca         1 A1A      -0.086300
     11 C16        -22.0450    -0.6310    24.7470 ca         1 A1A      -0.071000
     12 C17        -20.1440     0.1320    26.2030 c3         1 A1A       0.210100
     13 C19        -18.1880     0.0940    24.8180 c3         1 A1A       0.149600
     14 C20        -18.0270     0.7830    27.1000 c3         1 A1A       0.149600
     15 N01        -24.5780    -0.0900    23.6470 nb         1 A1A      -0.753000
     16 N02        -26.2480     1.4610    23.3720 nv         1 A1A      -1.056900
     17 N18        -18.7130    -0.0750    26.1570 n3         1 A1A      -0.716600
     18 CL13       -20.8050    -4.9190    25.1300 cl         1 A1A      -0.210000
     19 H1         -22.9830    -3.7450    23.7810 ha         1 A1A       0.129000
     20 H2         -27.0640    -0.0980    21.3840 ha         1 A1A       0.120000
     21 H3         -23.9410    -2.9580    22.0090 ha         1 A1A       0.125000
     22 H4         -25.4570    -2.2960    19.5270 hc         1 A1A       0.047700
     23 H5         -26.0380    -3.5230    20.6390 hc         1 A1A       0.047700
     24 H6         -27.1020    -2.2000    20.1460 hc         1 A1A       0.047700
     25 H7         -19.6490    -2.5420    26.1790 ha         1 A1A       0.145000
     26 H8         -22.3420     0.4050    24.6450 ha         1 A1A       0.131000
     27 H9         -20.4360     1.1140    25.7950 h1         1 A1A       0.041200
     28 H10        -20.4510     0.1360    27.2540 h1         1 A1A       0.041200
     29 H11        -17.1170    -0.1140    24.8100 h1         1 A1A       0.032200
     30 H12        -18.6640    -0.6040    24.1280 h1         1 A1A       0.032200
     31 H13        -18.3370     1.1110    24.4250 h1         1 A1A       0.032200
     32 H14        -16.9570     0.5730    27.0810 h1         1 A1A       0.032200
     33 H15        -18.1610     1.8550    26.8910 h1         1 A1A       0.032200
     34 H16        -18.3880     0.5920    28.1120 h1         1 A1A       0.032200
     35 H17        -25.6900     2.0820    23.9350 hn         1 A1A       0.470000
     36 H18        -26.8520     1.9270    22.7170 hn         1 A1A       0.470000
     37 C07        -26.0780    -2.4580    20.4100 c3         1 A1A      -0.053800
@<TRIPOS>BOND
     1     1     2 ar  
     2     1     7 1   
     3     1    11 ar  
     4     2     8 ar  
     5     2    19 1   
     6     3     4 ar  
     7     3    15 ar  
     8     3    16 1   
     9     4     5 ar  
    10     4    20 1   
    11     5     6 ar  
    12     5    37 1   
    13     6     7 ar  
    14     6    21 1   
    15     7    15 ar  
    16     8     9 ar  
    17     8    18 1   
    18     9    10 ar  
    19     9    25 1   
    20    10    11 ar  
    21    10    12 1   
    22    11    26 1   
    23    12    17 1   
    24    12    27 1   
    25    12    28 1   
    26    13    17 1   
    27    13    29 1   
    28    13    30 1   
    29    13    31 1   
    30    14    17 1   
    31    14    32 1   
    32    14    33 1   
    33    14    34 1   
    34    16    35 1   
    35    16    36 1   
    36    22    37 1   
    37    23    37 1   
    38    24    37 1   
@<TRIPOS>SUBSTRUCTURE
     1 A1A         1 TEMP              0 ****  ****    0 ROOT
