@<TRIPOS>MOLECULE
A1A
   38    40     1     0     0
SMALL
abcg2


@<TRIPOS>ATOM
      1 C11        -30.5550     5.6590   -36.6150 cp         1 A1A      -0.155500
      2 C12        -29.8130     4.4920   -36.5230 ca         1 A1A       0.170000
      3 C13        -30.3410     3.3690   -35.9140 ca         1 A1A       0.124000
      4 C15        -32.3770     4.5410   -35.4560 ca         1 A1A      -0.077300
      5 C16        -31.8450     5.6590   -36.0910 ca         1 A1A      -0.063000
      6 C17        -33.7630     4.5720   -34.8700 c3         1 A1A       0.210100
      7 C19        -36.1550     4.1770   -35.3790 cy         1 A1A       0.091800
      8 C20        -36.3350     2.8680   -36.1300 cy         1 A1A       0.156000
      9 C21        -34.8200     2.7780   -36.2390 cy         1 A1A       0.091800
     10 C02        -28.3510     8.4840   -37.1260 ca         1 A1A       0.606900
     11 C03        -28.9010     9.1520   -38.2370 ca         1 A1A      -0.226000
     12 C04        -30.0310     8.6430   -38.8390 ca         1 A1A       0.000700
     13 C05        -30.5900     7.4720   -38.3110 ca         1 A1A      -0.201000
     14 C06        -29.9790     6.8850   -37.2210 cp         1 A1A       0.442500
     15 C14        -31.6070     3.3860   -35.3680 ca         1 A1A      -0.121000
     16 F12        -28.5810     4.4290   -37.0340 f          1 A1A      -0.150000
     17 F13        -29.5980     2.2590   -35.8530 f          1 A1A      -0.162000
     18 F22        -36.9680     1.8640   -35.4790 f          1 A1A      -0.101000
     19 F23        -36.9720     2.9970   -37.3220 f          1 A1A      -0.101000
     20 N01        -28.8810     7.3670   -36.6390 nb         1 A1A      -0.735000
     21 N02        -27.2690     8.9930   -36.4750 nv         1 A1A      -1.059900
     22 N18        -34.7600     4.1960   -35.8480 nq         1 A1A      -0.691600
     23 H1         -32.4330     6.5670   -36.1520 ha         1 A1A       0.130000
     24 H2         -33.9930     5.5850   -34.5320 h1         1 A1A       0.047200
     25 H3         -33.7980     3.9190   -33.9840 h1         1 A1A       0.047200
     26 H4         -36.2590     4.0370   -34.2970 h1         1 A1A       0.076950
     27 H5         -36.7650     5.0250   -35.6950 h1         1 A1A       0.076950
     28 H6         -34.3990     2.5390   -37.2170 h1         1 A1A       0.076950
     29 H7         -34.4090     2.0900   -35.4910 h1         1 A1A       0.076950
     30 H8         -28.4330    10.0540   -38.6110 ha         1 A1A       0.120000
     31 H9         -31.4740     7.0300   -38.7530 ha         1 A1A       0.129000
     32 H10        -30.9190     8.6020   -40.7920 hc         1 A1A       0.048033
     33 H11        -31.5780     9.8280   -39.7240 hc         1 A1A       0.048033
     34 H12        -29.9910    10.0670   -40.4520 hc         1 A1A       0.048033
     35 H13        -31.9820     2.5000   -34.8710 ha         1 A1A       0.130000
     36 H14        -26.7760     8.3680   -35.8590 hn         1 A1A       0.474500
     37 H15        -26.6820     9.6460   -36.9670 hn         1 A1A       0.474500
     38 C07        -30.6560     9.3230   -40.0180 c3         1 A1A      -0.054800
@<TRIPOS>BOND
     1     1     2 ar  
     2     1     5 ar  
     3     1    14 1   
     4     2     3 ar  
     5     2    16 1   
     6     3    15 ar  
     7     3    17 1   
     8     4     5 ar  
     9     4     6 1   
    10     4    15 ar  
    11     5    23 1   
    12     6    22 1   
    13     6    24 1   
    14     6    25 1   
    15     7     8 1   
    16     7    22 1   
    17     7    26 1   
    18     7    27 1   
    19     8     9 1   
    20     8    18 1   
    21     8    19 1   
    22     9    22 1   
    23     9    28 1   
    24     9    29 1   
    25    10    11 ar  
    26    10    20 ar  
    27    10    21 1   
    28    11    12 ar  
    29    11    30 1   
    30    12    13 ar  
    31    12    38 1   
    32    13    14 ar  
    33    13    31 1   
    34    14    20 ar  
    35    15    35 1   
    36    21    36 1   
    37    21    37 1   
    38    32    38 1   
    39    33    38 1   
    40    34    38 1   
@<TRIPOS>SUBSTRUCTURE
     1 A1A         1 TEMP              0 ****  ****    0 ROOT
