@<TRIPOS>MOLECULE
A1A
   56    59     1     0     0
SMALL
abcg2


@<TRIPOS>ATOM
      1 C5         -10.2710   -53.0990   -41.3760 ca         1 A1A      -0.059000
      2 C4         -11.0070   -52.2110   -42.1420 ca         1 A1A      -0.144000
      3 C1         -10.7620   -53.5690   -40.1720 ca         1 A1A      -0.168000
      4 C13        -13.1570   -55.0900   -35.3710 ca         1 A1A      -0.170000
      5 C7         -14.5970   -49.5590   -43.1230 cc         1 A1A       0.364400
      6 C10        -13.1770   -54.3990   -36.5590 ca         1 A1A      -0.080600
      7 C11        -14.2570   -53.6390   -36.9560 ca         1 A1A      -0.218300
      8 C3         -12.2480   -51.8210   -41.6530 ca         1 A1A       0.353000
      9 C15        -15.3530   -53.5690   -36.1130 ca         1 A1A       0.432300
     10 C2         -12.0210   -53.1120   -39.7690 ca         1 A1A       0.495900
     11 C14        -14.3200   -54.9770   -34.5780 ca         1 A1A       0.631900
     12 C6         -13.0720   -50.8880   -42.4270 cc         1 A1A       0.327500
     13 C9         -12.1270   -54.3070   -37.5960 c          1 A1A       0.590600
     14 C12        -13.9880   -53.0120   -38.2800 c5         1 A1A       0.171300
     15 C21        -14.3340   -48.0350   -40.0820 c3         1 A1A      -0.094100
     16 C16        -13.3750   -56.4780   -32.9260 c3         1 A1A       0.224600
     17 C17        -15.6500   -55.4660   -32.6120 c3         1 A1A       0.224600
     18 C19        -18.6450   -51.8130   -35.7720 c3         1 A1A       0.144100
     19 C18        -16.5790   -52.7870   -36.4980 c3         1 A1A       0.111500
     20 C20        -14.4100   -49.5110   -39.7230 c3         1 A1A      -0.096400
     21 N4         -13.7050   -49.6470   -44.0680 nd         1 A1A      -0.356000
     22 N1         -12.7310   -52.2680   -40.5010 nb         1 A1A      -0.757000
     23 N6         -15.3650   -54.2310   -34.9660 nb         1 A1A      -0.750000
     24 N5         -12.7470   -50.4830   -43.6300 nd         1 A1A      -0.359000
     25 N3         -14.2560   -50.3230   -42.0650 na         1 A1A      -0.338000
     26 N2         -12.6430   -53.4980   -38.5840 n          1 A1A      -0.400300
     27 N8         -17.3960   -52.4220   -35.3680 n7         1 A1A      -0.850400
     28 O1         -11.0340   -54.8330   -37.5750 o          1 A1A      -0.515000
     29 H3          -9.2990   -53.4300   -41.7180 ha         1 A1A       0.127000
     30 H2         -10.6340   -51.8340   -43.0820 ha         1 A1A       0.155000
     31 H1         -10.1890   -54.2580   -39.5760 ha         1 A1A       0.159000
     32 H9         -12.2990   -55.6780   -35.0780 ha         1 A1A       0.145000
     33 H4         -15.5010   -48.9700   -43.1520 h5         1 A1A       0.061100
     34 H7         -14.0070   -51.9210   -38.2420 h1         1 A1A       0.068700
     35 H8         -14.6940   -53.3260   -39.0520 h1         1 A1A       0.068700
     36 H26        -13.9610   -47.4540   -39.2380 hc         1 A1A       0.039033
     37 H24        -13.6600   -47.8530   -40.9200 hc         1 A1A       0.039033
     38 H25        -15.3150   -47.6370   -40.3490 hc         1 A1A       0.039033
     39 H11        -13.6620   -56.9280   -31.9800 h1         1 A1A       0.041700
     40 H12        -13.1710   -57.2890   -33.6300 h1         1 A1A       0.041700
     41 H10        -12.4420   -55.9320   -32.7620 h1         1 A1A       0.041700
     42 H15        -15.5450   -56.0240   -31.6860 h1         1 A1A       0.041700
     43 H13        -15.8440   -54.4230   -32.3570 h1         1 A1A       0.041700
     44 H14        -16.5260   -55.8460   -33.1410 h1         1 A1A       0.041700
     45 H20        -19.2610   -51.6200   -34.8950 h1         1 A1A       0.028700
     46 H19        -18.4540   -50.8530   -36.2560 h1         1 A1A       0.028700
     47 H21        -19.2350   -52.4200   -36.4730 h1         1 A1A       0.028700
     48 H17        -16.2690   -51.8770   -37.0230 h1         1 A1A       0.038700
     49 H16        -17.1260   -53.3830   -37.2520 h1         1 A1A       0.038700
     50 H22        -15.0350   -49.6470   -38.8370 hc         1 A1A       0.056700
     51 H23        -13.4200   -49.8890   -39.4630 hc         1 A1A       0.056700
     52 H6         -16.0200   -50.0390   -41.0540 h1         1 A1A       0.064200
     53 H5         -15.0800   -51.4160   -40.4990 h1         1 A1A       0.064200
     54 H27        -17.5830   -53.2500   -34.8170 hn         1 A1A       0.431000
     55 C8         -15.0110   -50.3800   -40.8180 c3         1 A1A       0.085600
     56 N7         -14.4370   -55.6150   -33.3880 nh         1 A1A      -0.790300
@<TRIPOS>BOND
     1     1     2 ar  
     2     1     3 ar  
     3     1    29 1   
     4     2     8 ar  
     5     2    30 1   
     6     3    10 ar  
     7     3    31 1   
     8     4     6 ar  
     9     4    11 ar  
    10     4    32 1   
    11     5    21 2   
    12     5    25 1   
    13     5    33 1   
    14     6     7 ar  
    15     6    13 1   
    16     7     9 ar  
    17     7    14 1   
    18     8    12 1   
    19     8    22 ar  
    20     9    19 1   
    21     9    23 ar  
    22    10    22 ar  
    23    10    26 1   
    24    11    23 ar  
    25    11    56 1   
    26    12    24 2   
    27    12    25 1   
    28    13    26 1   
    29    13    28 2   
    30    14    26 1   
    31    14    34 1   
    32    14    35 1   
    33    15    20 1   
    34    15    36 1   
    35    15    37 1   
    36    15    38 1   
    37    16    39 1   
    38    16    40 1   
    39    16    41 1   
    40    16    56 1   
    41    17    42 1   
    42    17    43 1   
    43    17    44 1   
    44    17    56 1   
    45    18    27 1   
    46    18    45 1   
    47    18    46 1   
    48    18    47 1   
    49    19    27 1   
    50    19    48 1   
    51    19    49 1   
    52    20    50 1   
    53    20    51 1   
    54    20    55 1   
    55    21    24 1   
    56    25    55 1   
    57    27    54 1   
    58    52    55 1   
    59    53    55 1   
@<TRIPOS>SUBSTRUCTURE
     1 A1A         1 TEMP              0 ****  ****    0 ROOT
