@<TRIPOS>MOLECULE
A1A
   52    56     1     0     0
SMALL
abcg2


@<TRIPOS>ATOM
      1 C10        -11.8900    41.1370   -43.0140 cc         1 A1A      -0.124100
      2 C12        -10.8290    39.5310   -44.1300 ca         1 A1A      -0.062200
      3 C13        -10.4990    38.3560   -44.8000 ca         1 A1A      -0.129000
      4 C14         -9.1880    38.2080   -45.2110 ca         1 A1A      -0.090000
      5 C15         -8.2350    39.2060   -44.9620 ca         1 A1A      -0.140000
      6 C16         -8.5700    40.3720   -44.3000 ca         1 A1A      -0.044000
      7 C19        -11.2580    42.8100   -40.4960 ca         1 A1A      -0.115000
      8 C20        -11.9660    43.4070   -39.4560 ca         1 A1A       0.143100
      9 C22        -13.0750    43.1470   -37.3770 c3         1 A1A       0.146900
     10 C24        -11.7410    45.5230   -40.5680 ca         1 A1A      -0.077000
     11 C27        -11.1840    46.7100   -43.3850 cc         1 A1A       0.404800
     12 C31         -9.3250    45.6160   -43.2060 cc         1 A1A       0.379800
     13 C17         -9.8900    40.5490   -43.8680 ca         1 A1A      -0.056800
     14 C18        -10.8070    43.5440   -41.5850 ca         1 A1A      -0.143900
     15 C23        -12.2110    44.7770   -39.4990 ca         1 A1A      -0.180000
     16 C25        -11.0560    44.9230   -41.6110 ca         1 A1A      -0.023200
     17 C28        -12.5840    47.1620   -43.2070 c3         1 A1A      -0.122400
     18 C01         -4.5850    41.9460   -43.7390 c3         1 A1A       0.149900
     19 C03         -6.1540    43.5250   -42.9770 c          1 A1A       0.601100
     20 C05         -7.0270    44.6840   -43.3830 c3         1 A1A      -0.115400
     21 C06         -8.4050    44.5360   -42.7570 c3         1 A1A       0.109200
     22 C08        -10.0570    42.8420   -42.6670 cf         1 A1A       0.584200
     23 C09        -10.5890    41.5730   -43.1370 cd         1 A1A      -0.217800
     24 N07         -8.9750    43.2730   -43.1920 n2         1 A1A      -0.588900
     25 N11        -12.0300    39.9310   -43.6060 na         1 A1A      -0.211700
     26 N26        -10.5790    45.7070   -42.6820 na         1 A1A      -0.272800
     27 N29        -10.3410    47.1810   -44.2590 nd         1 A1A      -0.358000
     28 N30         -9.1740    46.4920   -44.1480 nd         1 A1A      -0.343000
     29 O02         -5.4500    43.0520   -43.9940 os         1 A1A      -0.435100
     30 O04         -6.0920    43.0840   -41.8570 o          1 A1A      -0.497000
     31 H1         -12.7370    41.6200   -42.5520 h4         1 A1A       0.217000
     32 H2         -11.2390    37.5880   -44.9880 ha         1 A1A       0.112000
     33 H3          -8.8930    37.3080   -45.7350 ha         1 A1A       0.111000
     34 H4          -7.2160    39.0600   -45.2990 ha         1 A1A       0.111000
     35 H5          -7.8300    41.1410   -44.1320 ha         1 A1A       0.136000
     36 H6         -11.0550    41.7480   -40.4430 ha         1 A1A       0.147000
     37 H7         -13.2930    42.3230   -36.7020 h1         1 A1A       0.045367
     38 H8         -12.4830    43.8930   -36.8420 h1         1 A1A       0.045367
     39 H9         -14.0160    43.6010   -37.6940 h1         1 A1A       0.045367
     40 H10        -11.9020    46.5920   -40.5670 ha         1 A1A       0.128000
     41 H11        -12.7450    45.2870   -38.7090 ha         1 A1A       0.126000
     42 H12        -12.8860    47.7310   -44.0830 hc         1 A1A       0.059367
     43 H13        -13.2650    46.3190   -43.0890 hc         1 A1A       0.059367
     44 H14        -12.6980    47.8070   -42.3350 hc         1 A1A       0.059367
     45 H15         -4.1000    41.7220   -44.6850 h1         1 A1A       0.047033
     46 H16         -3.8270    42.1920   -42.9950 h1         1 A1A       0.047033
     47 H17         -5.1470    41.0740   -43.4060 h1         1 A1A       0.047033
     48 H18         -6.5530    45.6070   -43.0360 hc         1 A1A       0.093200
     49 H19         -7.1060    44.7460   -44.4670 hc         1 A1A       0.093200
     50 H20         -8.3130    44.5800   -41.6630 h1         1 A1A       0.081700
     51 H24        -12.8900    39.4090   -43.6530 hn         1 A1A       0.353000
     52 O21        -12.3630    42.5930   -38.4680 os         1 A1A      -0.334100
@<TRIPOS>BOND
     1     1    23 2   
     2     1    25 1   
     3     1    31 1   
     4     2     3 ar  
     5     2    13 ar  
     6     2    25 1   
     7     3     4 ar  
     8     3    32 1   
     9     4     5 ar  
    10     4    33 1   
    11     5     6 ar  
    12     5    34 1   
    13     6    13 ar  
    14     6    35 1   
    15     7     8 ar  
    16     7    14 ar  
    17     7    36 1   
    18     8    15 ar  
    19     8    52 1   
    20     9    37 1   
    21     9    38 1   
    22     9    39 1   
    23     9    52 1   
    24    10    15 ar  
    25    10    16 ar  
    26    10    40 1   
    27    11    17 1   
    28    11    26 1   
    29    11    27 2   
    30    12    21 1   
    31    12    26 1   
    32    12    28 2   
    33    13    23 1   
    34    14    16 ar  
    35    14    22 1   
    36    15    41 1   
    37    16    26 1   
    38    17    42 1   
    39    17    43 1   
    40    17    44 1   
    41    18    29 1   
    42    18    45 1   
    43    18    46 1   
    44    18    47 1   
    45    19    20 1   
    46    19    29 1   
    47    19    30 2   
    48    20    21 1   
    49    20    48 1   
    50    20    49 1   
    51    21    24 1   
    52    21    50 1   
    53    22    23 1   
    54    22    24 2   
    55    25    51 1   
    56    27    28 1   
@<TRIPOS>SUBSTRUCTURE
     1 A1A         1 TEMP              0 ****  ****    0 ROOT
