@<TRIPOS>MOLECULE
A1A
   55    59     1     0     0
SMALL
abcg2


@<TRIPOS>ATOM
      1 C1         149.6960   135.5150   166.4250 ca         1 A1A      -0.110500
      2 C11        149.7160   139.2890   169.6270 c6         1 A1A       0.072000
      3 C12        149.8310   140.7990   169.6670 c6         1 A1A       0.125300
      4 C14        150.2430   140.8440   171.9380 c6         1 A1A       0.072600
      5 C15        150.6160   139.3720   171.9110 c          1 A1A       0.535000
      6 C17        148.9800   141.4720   168.5960 c3         1 A1A       0.102000
      7 C19        148.6330   140.2160   166.5080 c          1 A1A       0.641100
      8 C2         148.4400   135.3230   166.9890 ca         1 A1A      -0.110500
      9 C21        149.2550   139.8200   165.1960 cx         1 A1A      -0.193700
     10 C22        148.3120   139.8170   164.0160 cx         1 A1A      -0.087400
     11 C23        148.7460   138.5270   164.6080 cx         1 A1A      -0.087400
     12 C24        150.6900   140.1660   164.9800 ca         1 A1A      -0.062300
     13 C25        151.6830   139.3960   165.5850 ca         1 A1A      -0.096500
     14 C26        153.0240   139.7120   165.4410 ca         1 A1A      -0.105000
     15 C27        153.3750   140.8160   164.6780 ca         1 A1A       0.122000
     16 C28        152.4110   141.5990   164.0650 ca         1 A1A      -0.105000
     17 C29        151.0720   141.2680   164.2230 ca         1 A1A      -0.096500
     18 C3         148.2200   135.6050   168.3340 ca         1 A1A      -0.096000
     19 C4         149.2700   136.0870   169.1010 ca         1 A1A      -0.092300
     20 C5         150.5240   136.2890   168.5340 ca         1 A1A      -0.092300
     21 C6         150.7480   135.9990   167.1960 ca         1 A1A      -0.096000
     22 C7         151.4880   136.8270   169.5530 c5         1 A1A      -0.049600
     23 C8         150.5960   137.2440   170.7440 c5         1 A1A       0.104700
     24 C9         149.2870   136.4410   170.5600 c5         1 A1A      -0.049600
     25 N10        150.3530   138.6810   170.7850 n          1 A1A      -0.400800
     26 N18        149.3660   141.0470   167.2740 ns         1 A1A      -0.506900
     27 O13        149.3840   141.2660   170.9170 os         1 A1A      -0.433000
     28 O16        151.1590   138.8930   172.8980 o          1 A1A      -0.566000
     29 O20        147.5270   139.8120   166.8370 o          1 A1A      -0.602100
     30 CL30       155.0500   141.2220   164.4900 cl         1 A1A      -0.197000
     31 H1         149.8550   135.2940   165.3770 ha         1 A1A       0.112500
     32 H2         148.6640   138.9900   169.5680 h1         1 A1A       0.064700
     33 H3         150.2080   138.9260   168.7240 h1         1 A1A       0.064700
     34 H4         150.8850   141.0810   169.5150 h1         1 A1A       0.040700
     35 H5         151.1830   141.4140   171.9320 h1         1 A1A       0.077200
     36 H6         149.7500   141.0410   172.8910 h1         1 A1A       0.077200
     37 H7         149.0950   142.5540   168.6780 h1         1 A1A       0.075700
     38 H8         147.9280   141.2370   168.7510 h1         1 A1A       0.075700
     39 H9         147.6270   134.9520   166.3780 ha         1 A1A       0.112500
     40 H10        148.7260   140.1100   163.0600 hc         1 A1A       0.085450
     41 H11        147.2960   140.1480   164.1860 hc         1 A1A       0.085450
     42 H12        148.0360   137.9560   165.1900 hc         1 A1A       0.085450
     43 H13        149.4680   137.9320   164.0640 hc         1 A1A       0.085450
     44 H14        151.4030   138.5340   166.1780 ha         1 A1A       0.125500
     45 H15        153.7830   139.1040   165.9150 ha         1 A1A       0.132500
     46 H16        152.6950   142.4580   163.4710 ha         1 A1A       0.132500
     47 H17        150.3180   141.8830   163.7470 ha         1 A1A       0.125500
     48 H18        147.2400   135.4530   168.7700 ha         1 A1A       0.114000
     49 H19        151.7260   136.1500   166.7530 ha         1 A1A       0.114000
     50 H20        152.1820   136.0450   169.8740 hc         1 A1A       0.063950
     51 H21        152.1010   137.6500   169.1790 hc         1 A1A       0.063950
     52 H22        151.0730   136.9880   171.6850 h1         1 A1A       0.095700
     53 H23        148.4050   136.9940   170.8890 hc         1 A1A       0.063950
     54 H24        149.3280   135.5340   171.1690 hc         1 A1A       0.063950
     55 H25        150.2660   141.3530   166.9400 hn         1 A1A       0.321500
@<TRIPOS>BOND
     1     1     8 ar  
     2     1    21 ar  
     3     1    31 1   
     4     2     3 1   
     5     2    25 1   
     6     2    32 1   
     7     2    33 1   
     8     3     6 1   
     9     3    27 1   
    10     3    34 1   
    11     4     5 1   
    12     4    27 1   
    13     4    35 1   
    14     4    36 1   
    15     5    25 1   
    16     5    28 2   
    17     6    26 1   
    18     6    37 1   
    19     6    38 1   
    20     7     9 1   
    21     7    26 1   
    22     7    29 2   
    23     8    18 ar  
    24     8    39 1   
    25     9    10 1   
    26     9    11 1   
    27     9    12 1   
    28    10    11 1   
    29    10    40 1   
    30    10    41 1   
    31    11    42 1   
    32    11    43 1   
    33    12    13 ar  
    34    12    17 ar  
    35    13    14 ar  
    36    13    44 1   
    37    14    15 ar  
    38    14    45 1   
    39    15    16 ar  
    40    15    30 1   
    41    16    17 ar  
    42    16    46 1   
    43    17    47 1   
    44    18    19 ar  
    45    18    48 1   
    46    19    20 ar  
    47    19    24 1   
    48    20    21 ar  
    49    20    22 1   
    50    21    49 1   
    51    22    23 1   
    52    22    50 1   
    53    22    51 1   
    54    23    24 1   
    55    23    25 1   
    56    23    52 1   
    57    24    53 1   
    58    24    54 1   
    59    26    55 1   
@<TRIPOS>SUBSTRUCTURE
     1 A1A         1 TEMP              0 ****  ****    0 ROOT
