@<TRIPOS>MOLECULE
A1A
   30    31     1     0     0
SMALL
abcg2


@<TRIPOS>ATOM
      1 N           -1.7500    -1.0600     1.2280 n8         1 A1A      -0.991200
      2 CA          -2.5810    -0.1830     0.4220 c3         1 A1A       0.017500
      3 C           -3.8890    -0.8110    -0.1290 c          1 A1A       0.691000
      4 CB          -1.7680     0.3850    -0.7540 c3         1 A1A       0.002800
      5 CG          -0.5400     1.1400    -0.3620 cc         1 A1A      -0.079400
      6 CD1         -0.4610     2.4730    -0.0680 cd         1 A1A      -0.182100
      7 CE2          1.6150     1.7090     0.1740 ca         1 A1A      -0.078200
      8 CD2          0.7910     0.6290    -0.2150 ca         1 A1A      -0.046800
      9 CE3          1.3580    -0.6370    -0.3840 ca         1 A1A      -0.067000
     10 CZ3          2.7160    -0.8070    -0.1690 ca         1 A1A       0.076100
     11 O23          3.1990    -2.0630    -0.3550 os         1 A1A      -0.348100
     12 C24          4.5710    -2.3010    -0.1420 c3         1 A1A       0.158900
     13 CZ2          2.9760     1.5410     0.3960 ca         1 A1A      -0.115000
     14 NE1          0.8210     2.8180     0.2590 na         1 A1A      -0.241700
     15 CH2          3.5210     0.2800     0.2240 ca         1 A1A      -0.174000
     16 O           -4.0050    -2.0510    -0.0640 o          1 A1A      -0.735000
     17 H           -2.3060    -1.4150     1.9960 hn         1 A1A       0.380000
     18 H2          -1.5280    -1.8820     0.6770 hn         1 A1A       0.380000
     19 HA          -2.8670     0.6680     1.0520 h1         1 A1A       0.038700
     20 HB2         -1.4910    -0.4420    -1.4190 hc         1 A1A       0.048700
     21 HB3         -2.4260     1.0320    -1.3360 hc         1 A1A       0.048700
     22 HD1         -1.2430     3.2170    -0.0670 h4         1 A1A       0.208000
     23 HE3          0.7500    -1.4840    -0.6800 ha         1 A1A       0.138000
     24 H10          4.7390    -3.3560    -0.3470 h1         1 A1A       0.026033
     25 H11          5.2040    -1.7120    -0.8130 h1         1 A1A       0.026033
     26 H12          4.8740    -2.0960     0.8890 h1         1 A1A       0.026033
     27 HZ2          3.6050     2.3690     0.6970 ha         1 A1A       0.096000
     28 HE1          1.1280     3.7440     0.5030 hn         1 A1A       0.333000
     29 HH2          4.5810     0.1510     0.3970 ha         1 A1A       0.097000
     30 OXT         -4.7150    -0.0060    -0.6080 o          1 A1A      -0.735000
@<TRIPOS>BOND
     1     1     2 1   
     2     1    17 1   
     3     1    18 1   
     4     2     3 1   
     5     2     4 1   
     6     2    19 1   
     7     3    16 1   
     8     3    30 1   
     9     4     5 1   
    10     4    20 1   
    11     4    21 1   
    12     5     6 2   
    13     5     8 1   
    14     6    14 1   
    15     6    22 1   
    16     7     8 ar  
    17     7    13 ar  
    18     7    14 1   
    19     8     9 ar  
    20     9    10 ar  
    21     9    23 1   
    22    10    11 1   
    23    10    15 ar  
    24    11    12 1   
    25    12    24 1   
    26    12    25 1   
    27    12    26 1   
    28    13    15 ar  
    29    13    27 1   
    30    14    28 1   
    31    15    29 1   
@<TRIPOS>SUBSTRUCTURE
     1 A1A         1 TEMP              0 ****  ****    0 ROOT
