@<TRIPOS>MOLECULE
A1A
   34    36     1     0     0
SMALL
abcg2


@<TRIPOS>ATOM
      1 C13          7.8050    12.2860     8.5700 cc         1 A1A       0.138600
      2 C20          8.6150    12.0860     6.2410 c          1 A1A       0.579200
      3 C01          7.9580    13.7090     4.5450 c3         1 A1A       0.080300
      4 N02          7.8870    13.2160     5.9080 n          1 A1A      -0.294000
      5 C03          7.0990    13.8840     6.8270 ca         1 A1A       0.077600
      6 C04          6.3340    14.9860     6.4290 ca         1 A1A      -0.171000
      7 C05          5.5270    15.6880     7.3120 ca         1 A1A      -0.085300
      8 C06          4.7020    16.8430     6.8880 cx         1 A1A      -0.042400
      9 C07          5.2040    17.8040     5.8410 cx         1 A1A      -0.141400
     10 C08          4.0790    16.8840     5.5170 cx         1 A1A      -0.141400
     11 C09          5.5230    15.2510     8.6350 ca         1 A1A       0.108000
     12 F10          4.7570    15.9050     9.5310 f          1 A1A      -0.207000
     13 C11          6.2620    14.1820     9.0650 ca         1 A1A      -0.044000
     14 C12          7.0570    13.4590     8.1700 ca         1 A1A      -0.037800
     15 C14          7.8300    11.8120     9.9660 c3         1 A1A      -0.333200
     16 P15          9.3350    12.5100    10.9260 p5         1 A1A       1.256500
     17 O16          9.0700    12.0480    12.3620 o          1 A1A      -0.900500
     18 O17          9.2520    14.0240    10.7200 o          1 A1A      -0.900500
     19 O18         10.5330    11.8360    10.2550 o          1 A1A      -0.900500
     20 C19          8.5320    11.6580     7.6110 cd         1 A1A      -0.385200
     21 O21          9.2900    11.4960     5.3990 o          1 A1A      -0.637000
     22 H1           6.9870    13.6480     4.0510 h1         1 A1A       0.030700
     23 H2           8.2950    14.7450     4.5270 h1         1 A1A       0.030700
     24 H3           8.6660    13.1070     3.9900 h1         1 A1A       0.030700
     25 H4           6.3560    15.3060     5.3980 ha         1 A1A       0.092000
     26 H5           4.1090    17.2910     7.6730 hc         1 A1A       0.080700
     27 H6           6.1730    17.6050     5.4010 hc         1 A1A       0.062200
     28 H7           4.9880    18.8550     5.9890 hc         1 A1A       0.062200
     29 H8           3.0800    17.2930     5.4410 hc         1 A1A       0.062200
     30 H9           4.2690    16.0520     4.8490 hc         1 A1A       0.062200
     31 H10          6.2200    13.9010    10.1080 ha         1 A1A       0.166000
     32 H11          6.9180    12.0710    10.5020 hc         1 A1A       0.039200
     33 H12          7.9160    10.7240     9.9880 hc         1 A1A       0.039200
     34 H15          9.1010    10.7730     7.8600 ha         1 A1A       0.222000
@<TRIPOS>BOND
     1     1    14 1   
     2     1    15 1   
     3     1    20 2   
     4     2     4 1   
     5     2    20 1   
     6     2    21 2   
     7     3     4 1   
     8     3    22 1   
     9     3    23 1   
    10     3    24 1   
    11     4     5 1   
    12     5     6 ar  
    13     5    14 ar  
    14     6     7 ar  
    15     6    25 1   
    16     7     8 1   
    17     7    11 ar  
    18     8     9 1   
    19     8    10 1   
    20     8    26 1   
    21     9    10 1   
    22     9    27 1   
    23     9    28 1   
    24    10    29 1   
    25    10    30 1   
    26    11    12 1   
    27    11    13 ar  
    28    13    14 ar  
    29    13    31 1   
    30    15    16 1   
    31    15    32 1   
    32    15    33 1   
    33    16    17 1   
    34    16    18 1   
    35    16    19 1   
    36    20    34 1   
@<TRIPOS>SUBSTRUCTURE
     1 A1A         1 TEMP              0 ****  ****    0 ROOT
