@<TRIPOS>MOLECULE
A1A
   55    59     1     0     0
SMALL
abcg2


@<TRIPOS>ATOM
      1 C1          -5.0660   -10.1900    -7.7650 ca         1 A1A      -0.105500
      2 C2          -4.7180    -9.3830    -8.8410 ca         1 A1A      -0.099300
      3 C3          -3.8990    -8.2810    -8.6020 ca         1 A1A      -0.105500
      4 C4          -3.4560    -7.9920    -7.3250 ca         1 A1A      -0.080500
      5 C5          -3.8140    -8.7950    -6.2390 cp         1 A1A      -0.147500
      6 C6          -4.6240    -9.9030    -6.4820 ca         1 A1A      -0.080500
      7 C7          -3.3250    -8.4580    -4.8850 cp         1 A1A       0.430500
      8 C9          -2.3890    -7.7680    -2.3780 ca         1 A1A      -0.053000
      9 C10         -3.4670    -8.6920    -2.4770 ca         1 A1A      -0.032300
     10 C11         -3.9170    -9.0200    -3.7230 ca         1 A1A      -0.152000
     11 C13         -0.3170    -5.8980    -2.3390 ca         1 A1A      -0.005000
     12 C14         -0.8340    -6.4050    -1.1250 ca         1 A1A      -0.088000
     13 C15         -1.8440    -7.3250    -1.1510 ca         1 A1A      -0.076000
     14 C17         -4.1250    -9.2680    -1.2530 c3         1 A1A       0.207100
     15 C19         -3.7930   -10.3910     0.8360 c6         1 A1A       0.124800
     16 C21         -1.7920   -12.0140    -0.2470 c6         1 A1A       0.153100
     17 N1          -2.3360    -7.6060    -4.8040 nb         1 A1A      -0.665000
     18 C8          -1.8680    -7.2520    -3.5890 ca         1 A1A       0.267000
     19 C12         -0.8170    -6.3120    -3.5490 ca         1 A1A      -0.043000
     20 C81          0.7340    -4.9310    -2.3060 cg         1 A1A       0.321000
     21 N3          -3.2120   -10.0540    -0.4510 n3         1 A1A      -0.718600
     22 C20         -2.7890   -11.1660     1.6680 c6         1 A1A       0.153100
     23 O3          -2.3550   -12.3320     1.0050 os         1 A1A      -0.446000
     24 C22         -2.7680   -11.2580    -1.1290 c6         1 A1A       0.124800
     25 C23         -5.2430    -9.6930   -10.2230 c5         1 A1A       0.158000
     26 N4          -4.2240    -9.6060   -11.2440 ns         1 A1A      -0.513900
     27 C25         -4.2840    -8.5190   -12.0410 c          1 A1A       0.561000
     28 O4          -3.4840    -8.2290   -12.9120 o          1 A1A      -0.547000
     29 C26         -5.5110    -7.7280   -11.6350 c5         1 A1A      -0.173400
     30 C27         -6.2910    -8.6720   -10.7270 c5         1 A1A      -0.082400
     31 N55          1.5760    -4.1450    -2.2760 n1         1 A1A      -0.446000
     32 H79         -5.6890   -11.0610    -7.9280 ha         1 A1A       0.117500
     33 H3          -3.5970    -7.6330    -9.4150 ha         1 A1A       0.117500
     34 H4          -2.8260    -7.1280    -7.1610 ha         1 A1A       0.125500
     35 H6          -4.9050   -10.5740    -5.6810 ha         1 A1A       0.125500
     36 H11         -4.7500    -9.7040    -3.8130 ha         1 A1A       0.123000
     37 H14         -0.4250    -6.0660    -0.1830 ha         1 A1A       0.128000
     38 H15         -2.2230    -7.7220    -0.2220 ha         1 A1A       0.137000
     39 H172        -4.4970    -8.4440    -0.6360 h1         1 A1A       0.045200
     40 H171        -5.0080    -9.8480    -1.5640 h1         1 A1A       0.045200
     41 H192        -4.7170   -10.9840     0.7250 h1         1 A1A       0.043200
     42 H211        -1.5060   -12.9510    -0.7260 h1         1 A1A       0.053200
     43 H212        -0.8820   -11.4090    -0.1190 h1         1 A1A       0.053200
     44 H12         -0.4270    -5.9260    -4.4820 ha         1 A1A       0.143000
     45 H201        -3.2440   -11.4750     2.6110 h1         1 A1A       0.053200
     46 H202        -1.9340   -10.5150     1.9020 h1         1 A1A       0.053200
     47 H222        -2.2620   -10.9950    -2.0610 h1         1 A1A       0.043200
     48 H221        -3.6190   -11.9090    -1.3930 h1         1 A1A       0.043200
     49 H23         -5.6750   -10.6960   -10.2090 h1         1 A1A       0.062700
     50 H24         -3.4360   -10.2370   -11.2660 hn         1 A1A       0.328500
     51 H262        -5.1820    -6.8220   -11.1180 hc         1 A1A       0.077200
     52 H261        -6.0720    -7.4070   -12.5120 hc         1 A1A       0.077200
     53 H271        -6.7930    -8.1670    -9.9050 hc         1 A1A       0.059200
     54 H272        -7.0520    -9.2010   -11.3010 hc         1 A1A       0.059200
     55 H191        -4.0590    -9.4730     1.3640 h1         1 A1A       0.043200
@<TRIPOS>BOND
     1     1     2 ar  
     2     1     6 ar  
     3     1    32 1   
     4     2     3 ar  
     5     2    25 1   
     6     3     4 ar  
     7     3    33 1   
     8     4     5 ar  
     9     4    34 1   
    10     5     6 ar  
    11     5     7 1   
    12     6    35 1   
    13     7    10 ar  
    14     7    17 ar  
    15     8     9 ar  
    16     8    13 ar  
    17     8    18 ar  
    18     9    10 ar  
    19     9    14 1   
    20    10    36 1   
    21    11    12 ar  
    22    11    19 ar  
    23    11    20 1   
    24    12    13 ar  
    25    12    37 1   
    26    13    38 1   
    27    14    21 1   
    28    14    39 1   
    29    14    40 1   
    30    15    21 1   
    31    15    22 1   
    32    15    41 1   
    33    15    55 1   
    34    16    23 1   
    35    16    24 1   
    36    16    42 1   
    37    16    43 1   
    38    17    18 ar  
    39    18    19 ar  
    40    19    44 1   
    41    20    31 3   
    42    21    24 1   
    43    22    23 1   
    44    22    45 1   
    45    22    46 1   
    46    24    47 1   
    47    24    48 1   
    48    25    26 1   
    49    25    30 1   
    50    25    49 1   
    51    26    27 1   
    52    26    50 1   
    53    27    28 2   
    54    27    29 1   
    55    29    30 1   
    56    29    51 1   
    57    29    52 1   
    58    30    53 1   
    59    30    54 1   
@<TRIPOS>SUBSTRUCTURE
     1 A1A         1 TEMP              0 ****  ****    0 ROOT
