@<TRIPOS>MOLECULE
A1A
   21    21     1     0     0
SMALL
abcg2


@<TRIPOS>ATOM
      1 N1          -0.3550   -26.1720    -6.4960 nb         1 A1A      -0.657000
      2 C4           1.5250   -24.2650    -5.7540 ca         1 A1A      -0.059000
      3 C5           1.2690   -24.5280    -7.0890 ca         1 A1A      -0.153000
      4 C6           0.3210   -25.4890    -7.4110 ca         1 A1A       0.326900
      5 C7          -0.0970   -25.9260    -5.2180 ca         1 A1A       0.317900
      6 O            3.2250   -25.2480    -3.5570 o          1 A1A      -0.578100
      7 C1           2.2650   -24.9510    -2.8680 c          1 A1A       0.607100
      8 C2           2.3800   -24.7700    -1.3760 c3         1 A1A      -0.176100
      9 C           -0.1540   -24.5250    -2.5800 c3         1 A1A       0.095300
     10 C3           0.8290   -24.9810    -4.7880 ca         1 A1A      -0.092000
     11 H6           2.2380   -23.5030    -5.4710 ha         1 A1A       0.132000
     12 H7           1.7890   -23.9910    -7.8700 ha         1 A1A       0.126000
     13 H8           0.0990   -25.7130    -8.4480 h4         1 A1A       0.020100
     14 H9          -0.6580   -26.5060    -4.4910 h4         1 A1A       0.018100
     15 H4           3.3970   -24.9940    -1.0650 hc         1 A1A       0.063033
     16 H3           2.1460   -23.7460    -1.0820 hc         1 A1A       0.063033
     17 H5           1.6970   -25.4250    -0.8330 hc         1 A1A       0.063033
     18 H1          -0.9610   -24.1580    -3.2090 h1         1 A1A       0.042367
     19 H2          -0.4950   -25.4280    -2.0720 h1         1 A1A       0.042367
     20 H            0.0450   -23.7610    -1.8310 h1         1 A1A       0.042367
     21 N            1.0230   -24.7570    -3.4070 n          1 A1A      -0.243400
@<TRIPOS>BOND
     1     1     4 ar  
     2     1     5 ar  
     3     2     3 ar  
     4     2    10 ar  
     5     2    11 1   
     6     3     4 ar  
     7     3    12 1   
     8     4    13 1   
     9     5    10 ar  
    10     5    14 1   
    11     6     7 2   
    12     7     8 1   
    13     7    21 1   
    14     8    15 1   
    15     8    16 1   
    16     8    17 1   
    17     9    18 1   
    18     9    19 1   
    19     9    20 1   
    20     9    21 1   
    21    10    21 1   
@<TRIPOS>SUBSTRUCTURE
     1 A1A         1 TEMP              0 ****  ****    0 ROOT
