@<TRIPOS>MOLECULE
A1A
   22    22     1     0     0
SMALL
abcg2


@<TRIPOS>ATOM
      1 N1          19.6870   -15.7880   -20.7240 n7         1 A1A      -0.860400
      2 C4          18.1460   -14.8350   -22.4580 cc         1 A1A      -0.273300
      3 C5          18.4540   -15.0820   -21.0090 c3         1 A1A       0.239100
      4 C6          19.7220   -17.1710   -21.1520 c3         1 A1A       0.143100
      5 C3          18.3630   -13.7000   -23.1760 cd         1 A1A       0.278900
      6 N           18.0330   -13.7410   -24.5000 nd         1 A1A      -0.645000
      7 S           17.4810   -16.0210   -23.5190 ss         1 A1A      -0.057400
      8 C2          17.5530   -14.8960   -24.8350 cc         1 A1A       0.445700
      9 C1          17.0910   -15.2680   -26.2050 c3         1 A1A      -0.116700
     10 C           17.7140   -16.5580   -26.7310 c3         1 A1A      -0.091100
     11 H8          20.4660   -15.2830   -21.1250 hn         1 A1A       0.416000
     12 H7          18.4980   -14.1070   -20.5180 h1         1 A1A       0.063700
     13 H6          17.6310   -15.6270   -20.5390 h1         1 A1A       0.063700
     14 H9          20.6510   -17.6300   -20.8140 h1         1 A1A       0.033033
     15 H11         18.8990   -17.7190   -20.6870 h1         1 A1A       0.033033
     16 H10         19.6540   -17.3300   -22.2360 h1         1 A1A       0.033033
     17 H5          18.7710   -12.7900   -22.7550 h4         1 A1A       0.040100
     18 H3          17.3330   -14.4340   -26.8640 hc         1 A1A       0.066700
     19 H4          16.0020   -15.3620   -26.2050 hc         1 A1A       0.066700
     20 H           17.3740   -16.7520   -27.7480 hc         1 A1A       0.040367
     21 H1          18.8020   -16.4950   -26.7450 hc         1 A1A       0.040367
     22 H2          17.4330   -17.4190   -26.1240 hc         1 A1A       0.040367
@<TRIPOS>BOND
     1     1     3 1   
     2     1     4 1   
     3     1    11 1   
     4     2     3 1   
     5     2     5 2   
     6     2     7 1   
     7     3    12 1   
     8     3    13 1   
     9     4    14 1   
    10     4    15 1   
    11     4    16 1   
    12     5     6 1   
    13     5    17 1   
    14     6     8 2   
    15     7     8 1   
    16     8     9 1   
    17     9    10 1   
    18     9    18 1   
    19     9    19 1   
    20    10    20 1   
    21    10    21 1   
    22    10    22 1   
@<TRIPOS>SUBSTRUCTURE
     1 A1A         1 TEMP              0 ****  ****    0 ROOT
