@<TRIPOS>MOLECULE
A1A
   79    83     1     0     0
SMALL
abcg2


@<TRIPOS>ATOM
      1 C28          0.7990    -3.8380     5.6890 ca         1 A1A      -0.199000
      2 C27         -0.5790    -4.0270     5.7230 ca         1 A1A      -0.050900
      3 C26         -1.3160    -4.4270     4.5180 cc         1 A1A       0.484400
      4 C25          0.0550    -7.8060     3.6560 cy         1 A1A      -0.080400
      5 C23          4.3690    -9.8120     4.3040 c3         1 A1A       0.094300
      6 C21          2.5570    -8.2320     3.8790 c          1 A1A       0.603100
      7 C18          0.2300    -6.2860     3.8110 cy         1 A1A       0.061300
      8 C16         -1.8340    -5.4340     2.6350 ca         1 A1A      -0.093200
      9 C15         -2.7940    -4.4730     2.9900 ca         1 A1A       0.088400
     10 C14         -3.8920    -4.2430     2.1630 ca         1 A1A      -0.060000
     11 C12         -3.0410    -5.9510     0.6520 ca         1 A1A      -0.146600
     12 C11         -3.3050    -5.9110    -3.9750 c6         1 A1A      -0.070400
     13 C02         -3.1160    -6.7590    -0.6080 c          1 A1A       0.616700
     14 C05         -4.6190    -6.6250    -3.6850 c6         1 A1A      -0.073700
     15 C06         -5.0150    -7.4610    -4.9120 c6         1 A1A      -0.070400
     16 C07         -4.5040    -6.8350    -6.2130 c6         1 A1A       0.170800
     17 C10         -3.4510    -4.9540    -5.1630 c6         1 A1A       0.170800
     18 C13         -4.0030    -4.9850     1.0050 ca         1 A1A      -0.114000
     19 C19          1.3310    -6.3120     2.7430 cy         1 A1A      -0.080400
     20 C20          1.4370    -7.8430     2.9460 cy         1 A1A      -0.171700
     21 C29          1.4670    -3.4470     6.8460 ca         1 A1A       0.155100
     22 C32          0.7510    -3.2230     8.0250 ca         1 A1A       0.039100
     23 C35         -0.6390    -3.3820     8.0380 ca         1 A1A       0.155100
     24 C38         -1.3040    -3.7940     6.8860 ca         1 A1A      -0.199000
     25 C40         -1.9360    -6.1730     1.4650 ca         1 A1A      -0.052000
     26 N03         -4.3120    -6.8210    -1.2160 ns         1 A1A      -0.499900
     27 N08         -4.4850    -5.3920    -6.0880 n3         1 A1A      -0.726600
     28 N17         -0.8970    -5.3980     3.6450 na         1 A1A      -0.154600
     29 N39         -2.4440    -3.8680     4.1630 nd         1 A1A      -0.573100
     30 O01         -2.1250    -7.3400    -1.0340 o          1 A1A      -0.619100
     31 O24          2.7840    -7.6120     4.9120 o          1 A1A      -0.610100
     32 O30          2.7950    -3.2650     6.9240 os         1 A1A      -0.322600
     33 O33          1.4030    -2.8750     9.1620 os         1 A1A      -0.328100
     34 O36         -1.2400    -3.1310     9.2110 os         1 A1A      -0.322600
     35 H281         1.3400    -3.9640     4.7620 ha         1 A1A       0.132000
     36 H251        -0.7420    -8.0970     2.9750 hc         1 A1A       0.069950
     37 H252        -0.0570    -8.3730     4.5790 hc         1 A1A       0.069950
     38 H231         4.7670   -10.6950     3.8130 h1         1 A1A       0.041700
     39 H233         5.1730    -9.0810     4.4000 h1         1 A1A       0.041700
     40 H232         4.0440   -10.0940     5.3060 h1         1 A1A       0.041700
     41 H181         0.6570    -6.0820     4.7870 h1         1 A1A       0.107700
     42 H141        -4.6290    -3.4930     2.4170 ha         1 A1A       0.132000
     43 H112        -2.5380    -6.6630    -4.1860 hc         1 A1A       0.044950
     44 H111        -2.9550    -5.3490    -3.1090 hc         1 A1A       0.044950
     45 H041        -5.4970    -8.0690    -2.3550 h1         1 A1A       0.055200
     46 H042        -3.7710    -8.2750    -2.5890 h1         1 A1A       0.055200
     47 H051        -5.3920    -5.8690    -3.5100 hc         1 A1A       0.058700
     48 H061        -6.1020    -7.5660    -4.9450 hc         1 A1A       0.044950
     49 H062        -4.6070    -8.4720    -4.8210 hc         1 A1A       0.044950
     50 H071        -5.1610    -7.1100    -7.0400 h1         1 A1A       0.030700
     51 H072        -3.5080    -7.2380    -6.4680 h1         1 A1A       0.030700
     52 H093        -4.4230    -3.6300    -7.1990 h1         1 A1A       0.028700
     53 H092        -3.4350    -4.9260    -7.8850 h1         1 A1A       0.028700
     54 H091        -5.2020    -4.9880    -8.0090 h1         1 A1A       0.028700
     55 H101        -2.4750    -4.8630    -5.6670 h1         1 A1A       0.030700
     56 H102        -3.7120    -3.9520    -4.8080 h1         1 A1A       0.030700
     57 H131        -4.8410    -4.7800     0.3510 ha         1 A1A       0.109000
     58 H191         2.2150    -5.7060     2.9360 hc         1 A1A       0.069950
     59 H192         0.9560    -6.0770     1.7470 hc         1 A1A       0.069950
     60 H201         1.4580    -8.4280     2.0270 hc         1 A1A       0.073700
     61 H311         4.6190    -3.4320     6.0880 h1         1 A1A       0.044700
     62 H313         3.4510    -4.6220     5.4820 h1         1 A1A       0.044700
     63 H312         3.3630    -2.9270     4.9440 h1         1 A1A       0.044700
     64 H341         2.1200    -1.3340    10.2700 h1         1 A1A       0.034033
     65 H342         2.1900    -1.0470     8.5220 h1         1 A1A       0.034033
     66 H343         0.6390    -0.9420     9.3800 h1         1 A1A       0.034033
     67 H372        -2.9180    -3.0160    10.3150 h1         1 A1A       0.044700
     68 H371        -3.1650    -2.5990     8.6100 h1         1 A1A       0.044700
     69 H373        -2.9650    -4.2980     9.0920 h1         1 A1A       0.044700
     70 H381        -2.3740    -3.9420     6.8800 ha         1 A1A       0.132000
     71 H401        -1.1910    -6.8970     1.1690 ha         1 A1A       0.139000
     72 H031        -5.1090    -6.3830    -0.7860 hn         1 A1A       0.315500
     73 H221         3.0460    -9.7750     2.6550 hn         1 A1A       0.316500
     74 N22          3.2740    -9.3020     3.5130 ns         1 A1A      -0.502900
     75 C04         -4.5530    -7.5270    -2.4540 c3         1 A1A       0.100000
     76 C09         -4.3760    -4.7100    -7.3530 c3         1 A1A       0.158100
     77 C31          3.5830    -3.5810     5.7920 c3         1 A1A       0.142400
     78 C34          1.5910    -1.4750     9.3290 c3         1 A1A       0.148900
     79 C37         -2.6440    -3.2730     9.2950 c3         1 A1A       0.142400
@<TRIPOS>BOND
     1     1     2 ar  
     2     1    21 ar  
     3     1    35 1   
     4     2     3 1   
     5     2    24 ar  
     6     3    28 1   
     7     3    29 2   
     8     4     7 1   
     9     4    20 1   
    10     4    36 1   
    11     4    37 1   
    12     5    38 1   
    13     5    39 1   
    14     5    40 1   
    15     5    74 1   
    16     6    20 1   
    17     6    31 2   
    18     6    74 1   
    19     7    19 1   
    20     7    28 1   
    21     7    41 1   
    22     8     9 ar  
    23     8    25 ar  
    24     8    28 1   
    25     9    10 ar  
    26     9    29 1   
    27    10    18 ar  
    28    10    42 1   
    29    11    13 1   
    30    11    18 ar  
    31    11    25 ar  
    32    12    14 1   
    33    12    17 1   
    34    12    43 1   
    35    12    44 1   
    36    13    26 1   
    37    13    30 2   
    38    14    15 1   
    39    14    47 1   
    40    14    75 1   
    41    15    16 1   
    42    15    48 1   
    43    15    49 1   
    44    16    27 1   
    45    16    50 1   
    46    16    51 1   
    47    17    27 1   
    48    17    55 1   
    49    17    56 1   
    50    18    57 1   
    51    19    20 1   
    52    19    58 1   
    53    19    59 1   
    54    20    60 1   
    55    21    22 ar  
    56    21    32 1   
    57    22    23 ar  
    58    22    33 1   
    59    23    24 ar  
    60    23    34 1   
    61    24    70 1   
    62    25    71 1   
    63    26    72 1   
    64    26    75 1   
    65    27    76 1   
    66    32    77 1   
    67    33    78 1   
    68    34    79 1   
    69    45    75 1   
    70    46    75 1   
    71    52    76 1   
    72    53    76 1   
    73    54    76 1   
    74    61    77 1   
    75    62    77 1   
    76    63    77 1   
    77    64    78 1   
    78    65    78 1   
    79    66    78 1   
    80    67    79 1   
    81    68    79 1   
    82    69    79 1   
    83    73    74 1   
@<TRIPOS>SUBSTRUCTURE
     1 A1A         1 TEMP              0 ****  ****    0 ROOT
