@<TRIPOS>MOLECULE
A1A
   31    31     1     0     0
SMALL
abcg2


@<TRIPOS>ATOM
      1 C4          18.3850   -14.6230   -23.8360 c          1 A1A       0.613700
      2 C5          19.6980   -15.1840   -23.3710 ca         1 A1A      -0.138600
      3 C6          20.8260   -15.0210   -24.1660 ca         1 A1A      -0.081000
      4 C7          22.0680   -15.4500   -23.7210 ca         1 A1A      -0.118000
      5 C8          22.1780   -16.0480   -22.4750 ca         1 A1A      -0.096000
      6 C10         19.7970   -15.7740   -22.1070 ca         1 A1A      -0.043300
      7 O           18.0290   -13.5200   -23.4410 o          1 A1A      -0.596100
      8 N           17.6600   -15.3680   -24.6890 n          1 A1A      -0.408800
      9 C2          18.0170   -16.7170   -25.1000 c3         1 A1A       0.101500
     10 C3          18.6360   -16.7780   -26.4870 c3         1 A1A      -0.111600
     11 C1          16.3910   -14.8520   -25.1830 c3         1 A1A       0.101500
     12 C           15.2260   -15.1670   -24.2560 c3         1 A1A      -0.111600
     13 C11         18.5900   -15.9390   -21.2290 c3         1 A1A      -0.054800
     14 C9          21.0500   -16.2080   -21.6810 ca         1 A1A      -0.116000
     15 H10         20.7350   -14.5560   -25.1410 ha         1 A1A       0.118000
     16 H11         22.9420   -15.3200   -24.3460 ha         1 A1A       0.115000
     17 H12         23.1400   -16.3920   -22.1180 ha         1 A1A       0.114000
     18 H5          18.6960   -17.1530   -24.3690 h1         1 A1A       0.052450
     19 H6          17.1100   -17.3250   -25.0690 h1         1 A1A       0.052450
     20 H7          18.8320   -17.8150   -26.7610 hc         1 A1A       0.040533
     21 H9          17.9720   -16.3570   -27.2430 hc         1 A1A       0.040533
     22 H8          19.5790   -16.2340   -26.5220 hc         1 A1A       0.040533
     23 H3          16.2150   -15.2930   -26.1640 h1         1 A1A       0.052450
     24 H4          16.4760   -13.7770   -25.3370 h1         1 A1A       0.052450
     25 H           14.2950   -14.7960   -24.6860 hc         1 A1A       0.040533
     26 H2          15.1180   -16.2420   -24.1080 hc         1 A1A       0.040533
     27 H1          15.3570   -14.6990   -23.2810 hc         1 A1A       0.040533
     28 H15         18.2620   -14.9800   -20.8240 hc         1 A1A       0.048367
     29 H16         17.7450   -16.3610   -21.7760 hc         1 A1A       0.048367
     30 H14         18.8050   -16.5970   -20.3890 hc         1 A1A       0.048367
     31 H13         21.1410   -16.6790   -20.7100 ha         1 A1A       0.113000
@<TRIPOS>BOND
     1     1     2 1   
     2     1     7 2   
     3     1     8 1   
     4     2     3 ar  
     5     2     6 ar  
     6     3     4 ar  
     7     3    15 1   
     8     4     5 ar  
     9     4    16 1   
    10     5    14 ar  
    11     5    17 1   
    12     6    13 1   
    13     6    14 ar  
    14     8     9 1   
    15     8    11 1   
    16     9    10 1   
    17     9    18 1   
    18     9    19 1   
    19    10    20 1   
    20    10    21 1   
    21    10    22 1   
    22    11    12 1   
    23    11    23 1   
    24    11    24 1   
    25    12    25 1   
    26    12    26 1   
    27    12    27 1   
    28    13    28 1   
    29    13    29 1   
    30    13    30 1   
    31    14    31 1   
@<TRIPOS>SUBSTRUCTURE
     1 A1A         1 TEMP              0 ****  ****    0 ROOT
