@<TRIPOS>MOLECULE
A1A
   13    13     1     0     0
SMALL
abcg2


@<TRIPOS>ATOM
      1 N           -8.7110     5.3440     7.0120 nu         1 A1A      -0.547500
      2 CA          -7.7760     5.9150     6.0270 c5         1 A1A       0.014500
      3 C           -6.3100     5.8350     6.5180 c          1 A1A       0.733000
      4 O           -6.0400     6.4680     7.5550 o          1 A1A      -0.718000
      5 CB          -8.3260     7.3380     5.8920 c5         1 A1A      -0.146700
      6 CG          -9.7360     7.1270     6.3540 c2         1 A1A       0.287200
      7 ND          -9.9110     6.0170     6.9480 n2         1 A1A      -0.466400
      8 H           -8.8650     4.3500     6.9150 hn         1 A1A       0.427000
      9 HA          -7.8740     5.3900     5.0680 h1         1 A1A       0.017700
     10 HB1         -7.8070     8.0330     6.5610 hc         1 A1A       0.055700
     11 HB2         -8.2530     7.7380     4.8810 hc         1 A1A       0.055700
     12 HG         -10.5450     7.8400     6.2690 h4         1 A1A       0.004800
     13 OXT         -5.5370     5.1440     5.8280 o          1 A1A      -0.718000
@<TRIPOS>BOND
     1     1     2 1   
     2     1     7 1   
     3     1     8 1   
     4     2     3 1   
     5     2     5 1   
     6     2     9 1   
     7     3     4 1   
     8     3    13 1   
     9     5     6 1   
    10     5    10 1   
    11     5    11 1   
    12     6     7 2   
    13     6    12 1   
@<TRIPOS>SUBSTRUCTURE
     1 A1A         1 TEMP              0 ****  ****    0 ROOT
