@<TRIPOS>MOLECULE
A1A
   29    31     1     0     0
SMALL
abcg2


@<TRIPOS>ATOM
      1 N2          24.9660    -9.0560    18.1540 nc         1 A1A      -0.421000
      2 C3          22.2590    -6.3200    20.2730 c3         1 A1A       0.010600
      3 C6          24.4040    -9.7300    21.9800 ca         1 A1A       0.045100
      4 C9          26.5870    -8.1960    21.4300 ca         1 A1A      -0.088000
      5 C1          24.4920   -10.2380    18.4340 cd         1 A1A       0.661300
      6 C10         25.3410    -7.5710    21.4680 ca         1 A1A      -0.090000
      7 C11         24.2520    -8.3730    21.7410 ca         1 A1A      -0.012400
      8 C2          22.9070    -8.4850    18.7140 cd         1 A1A       0.465700
      9 C4          22.2360    -6.8490    21.6980 c3         1 A1A       0.127000
     10 C5          22.2470    -9.2870    22.1580 c          1 A1A       0.688100
     11 C7          25.6220   -10.3640    21.9430 ca         1 A1A      -0.093000
     12 C8          26.7270    -9.5610    21.6570 ca         1 A1A      -0.114000
     13 N1          25.1830   -11.3830    18.2880 nv         1 A1A      -1.033900
     14 N3          24.0540    -8.0780    18.3020 nc         1 A1A      -0.270000
     15 N4          22.8950    -8.1240    21.8520 n          1 A1A      -0.318000
     16 O2          23.1810   -10.2720    22.2440 os         1 A1A      -0.284200
     17 S1          21.5310    -7.4600    19.0560 ss         1 A1A      -0.308300
     18 S2          22.8290   -10.2090    18.9360 ss         1 A1A      -0.271800
     19 H4          23.2610    -6.0560    19.9390 h1         1 A1A       0.090200
     20 H3          21.6540    -5.4130    20.2270 h1         1 A1A       0.090200
     21 H9          27.4650    -7.6010    21.2150 ha         1 A1A       0.124000
     22 H10         25.2430    -6.5100    21.2880 ha         1 A1A       0.130000
     23 H5          22.7180    -6.1190    22.3520 h1         1 A1A       0.072700
     24 H6          21.2100    -6.9640    22.0410 h1         1 A1A       0.072700
     25 H7          25.7220   -11.4250    22.1260 ha         1 A1A       0.133000
     26 H8          27.7090   -10.0110    21.6150 ha         1 A1A       0.121000
     27 H2          26.1770   -11.2850    18.1500 hn         1 A1A       0.486000
     28 H1          24.9090   -12.1920    18.8210 hn         1 A1A       0.486000
     29 O1          21.0760    -9.4800    22.3390 o          1 A1A      -0.500000
@<TRIPOS>BOND
     1     1     5 2   
     2     1    14 1   
     3     2     9 1   
     4     2    17 1   
     5     2    19 1   
     6     2    20 1   
     7     3     7 ar  
     8     3    11 ar  
     9     3    16 1   
    10     4     6 ar  
    11     4    12 ar  
    12     4    21 1   
    13     5    13 1   
    14     5    18 1   
    15     6     7 ar  
    16     6    22 1   
    17     7    15 1   
    18     8    14 2   
    19     8    17 1   
    20     8    18 1   
    21     9    15 1   
    22     9    23 1   
    23     9    24 1   
    24    10    15 1   
    25    10    16 1   
    26    10    29 2   
    27    11    12 ar  
    28    11    25 1   
    29    12    26 1   
    30    13    27 1   
    31    13    28 1   
@<TRIPOS>SUBSTRUCTURE
     1 A1A         1 TEMP              0 ****  ****    0 ROOT
