@<TRIPOS>MOLECULE
A1A
   55    58     1     0     0
SMALL
abcg2


@<TRIPOS>ATOM
      1 C10          4.7080   -14.2900    13.3100 ca         1 A1A       0.029000
      2 C11          5.4940   -15.1600    12.5990 ca         1 A1A      -0.239000
      3 C12          5.0560   -16.4840    12.3740 ca         1 A1A       0.353000
      4 C14          7.1490   -17.0710    11.1850 c5         1 A1A       0.240800
      5 C15          7.6820   -18.4370    10.7680 c5         1 A1A      -0.095900
      6 C16          6.4250   -19.1860    10.3410 c5         1 A1A      -0.095900
      7 C17          5.3770   -18.7060    11.3380 c5         1 A1A       0.240800
      8 C18          3.8110   -16.8630    12.8880 ca         1 A1A      -0.287000
      9 C19          3.0100   -15.9660    13.6010 ca         1 A1A       0.124600
     10 C21          1.3300   -17.7340    13.9140 c3         1 A1A       0.100000
     11 C22          1.9720   -18.7000    14.9000 c5         1 A1A      -0.083700
     12 C23          1.5790   -18.5120    16.3640 c5         1 A1A      -0.074900
     13 C24          2.0560   -19.8080    17.0250 c5         1 A1A      -0.079400
     14 C25          1.9070   -20.9010    15.9410 c5         1 A1A      -0.079400
     15 C26          1.5770   -20.1540    14.6350 c5         1 A1A      -0.074900
     16 C27          0.9200   -15.4760    14.7360 c          1 A1A       0.576200
     17 C02          1.3840   -14.1250    14.9580 cc         1 A1A      -0.292400
     18 C03          2.6400   -13.7300    14.5840 cd         1 A1A       0.164600
     19 C04          3.1620   -12.3870    14.9440 c3         1 A1A      -0.346200
     20 P05          2.9990   -10.9770    13.6600 p5         1 A1A       1.262500
     21 O06          4.0570   -11.2580    12.5840 o          1 A1A      -0.904500
     22 O07          3.3030    -9.7400    14.5110 o          1 A1A      -0.904500
     23 O08          1.5570   -11.0640    13.1510 o          1 A1A      -0.904500
     24 C09          3.4590   -14.6520    13.8400 ca         1 A1A      -0.137800
     25 N13          5.8150   -17.3650    11.6750 nh         1 A1A      -0.855400
     26 N20          1.7720   -16.3530    14.0790 n          1 A1A      -0.291000
     27 O28         -0.1810   -15.8730    15.1250 o          1 A1A      -0.651000
     28 H1           5.0370   -13.2670    13.4200 ha         1 A1A       0.188000
     29 H2           6.4360   -14.8150    12.1960 ha         1 A1A       0.100000
     30 H5           8.1460   -18.9330    11.6230 hc         1 A1A       0.037950
     31 H6           8.4300   -18.3650     9.9790 hc         1 A1A       0.037950
     32 H7           6.1370   -18.8950     9.3280 hc         1 A1A       0.037950
     33 H8           6.5410   -20.2690    10.3540 hc         1 A1A       0.037950
     34 H9           4.3740   -18.7020    10.9040 h1         1 A1A       0.037950
     35 H10          5.3430   -19.3490    12.2260 h1         1 A1A       0.037950
     36 H11          3.4780   -17.8750    12.7280 ha         1 A1A       0.089000
     37 H12          0.2510   -17.7560    14.0390 h1         1 A1A       0.052700
     38 H13          1.5250   -18.0480    12.8870 h1         1 A1A       0.052700
     39 H14          3.0640   -18.6220    14.8290 hc         1 A1A       0.057700
     40 H15          2.0140   -17.6210    16.8190 hc         1 A1A       0.046700
     41 H16          0.4910   -18.4200    16.4400 hc         1 A1A       0.046700
     42 H17          1.4980   -20.0420    17.9330 hc         1 A1A       0.026200
     43 H18          3.1030   -19.7090    17.3170 hc         1 A1A       0.026200
     44 H19          1.1230   -21.6160    16.1920 hc         1 A1A       0.026200
     45 H20          2.8290   -21.4750    15.8420 hc         1 A1A       0.026200
     46 H21          0.5020   -20.2020    14.4330 hc         1 A1A       0.046700
     47 H22          2.0840   -20.5740    13.7650 hc         1 A1A       0.046700
     48 H23         -0.5730   -13.5680    15.6600 hc         1 A1A       0.035033
     49 H24          0.7250   -13.0650    16.7290 hc         1 A1A       0.035033
     50 H25          0.4610   -12.2130    15.2110 hc         1 A1A       0.035033
     51 H26          4.2200   -12.4580    15.2120 hc         1 A1A       0.039200
     52 H27          2.6460   -12.0340    15.8370 hc         1 A1A       0.039200
     53 C01          0.4490   -13.1960    15.6780 c3         1 A1A      -0.013900
     54 H3           7.7690   -16.6110    11.9580 h1         1 A1A       0.037950
     55 H4           7.1200   -16.3780    10.3350 h1         1 A1A       0.037950
@<TRIPOS>BOND
     1     1     2 ar  
     2     1    24 ar  
     3     1    28 1   
     4     2     3 ar  
     5     2    29 1   
     6     3     8 ar  
     7     3    25 1   
     8     4     5 1   
     9     4    25 1   
    10     4    54 1   
    11     4    55 1   
    12     5     6 1   
    13     5    30 1   
    14     5    31 1   
    15     6     7 1   
    16     6    32 1   
    17     6    33 1   
    18     7    25 1   
    19     7    34 1   
    20     7    35 1   
    21     8     9 ar  
    22     8    36 1   
    23     9    24 ar  
    24     9    26 1   
    25    10    11 1   
    26    10    26 1   
    27    10    37 1   
    28    10    38 1   
    29    11    12 1   
    30    11    15 1   
    31    11    39 1   
    32    12    13 1   
    33    12    40 1   
    34    12    41 1   
    35    13    14 1   
    36    13    42 1   
    37    13    43 1   
    38    14    15 1   
    39    14    44 1   
    40    14    45 1   
    41    15    46 1   
    42    15    47 1   
    43    16    17 1   
    44    16    26 1   
    45    16    27 2   
    46    17    18 2   
    47    17    53 1   
    48    18    19 1   
    49    18    24 1   
    50    19    20 1   
    51    19    51 1   
    52    19    52 1   
    53    20    21 1   
    54    20    22 1   
    55    20    23 1   
    56    48    53 1   
    57    49    53 1   
    58    50    53 1   
@<TRIPOS>SUBSTRUCTURE
     1 A1A         1 TEMP              0 ****  ****    0 ROOT
