@<TRIPOS>MOLECULE
A1A
   36    38     1     0     0
SMALL
abcg2


@<TRIPOS>ATOM
      1 N2          14.4110    -0.1830     3.5890 nb         1 A1A      -0.300000
      2 C3          14.3940     0.0050    -0.5050 c3         1 A1A      -0.043100
      3 C6          11.7650     2.7230    -0.1090 ca         1 A1A      -0.107500
      4 C9          11.9280    -0.0400    -0.0250 ca         1 A1A      -0.103000
      5 C12         14.7130     2.0570     4.9940 ca         1 A1A       0.146500
      6 C14         15.5810     3.3940     3.3680 cc         1 A1A      -0.207200
      7 C1          16.3320    -1.1690     0.6580 c3         1 A1A       0.146600
      8 C10         14.9210     0.8700     2.9480 ca         1 A1A       0.441900
      9 C11         14.0840    -0.0540     4.8750 ca         1 A1A       0.179900
     10 C13         15.1010     2.0800     3.6510 ca         1 A1A      -0.261800
     11 C15         15.4670     4.0970     4.5320 cd         1 A1A      -0.181100
     12 C2          15.0210    -0.4110     0.8310 c3         1 A1A       0.237500
     13 C4          13.0760     0.6990    -0.3050 ca         1 A1A      -0.080300
     14 C5          12.9780     2.0870    -0.3440 ca         1 A1A      -0.103000
     15 C7          10.6290     1.9760     0.1710 ca         1 A1A      -0.109000
     16 C8          10.7140     0.5900     0.2110 ca         1 A1A      -0.107500
     17 N1          15.2480     0.7580     1.6510 nu         1 A1A      -0.926100
     18 N3          14.1990     1.0070     5.6450 nb         1 A1A      -0.232000
     19 N4          14.9440     3.2880     5.5090 na         1 A1A      -0.316400
     20 H5          14.2600    -0.8870    -1.1170 hc         1 A1A       0.059200
     21 H6          15.0900     0.6570    -1.0410 hc         1 A1A       0.059200
     22 H8          11.7090     3.8040    -0.1460 ha         1 A1A       0.111500
     23 H11         11.9860    -1.1230     0.0080 ha         1 A1A       0.108500
     24 H14         15.9610     3.7760     2.4340 ha         1 A1A       0.200000
     25 H3          16.7320    -1.3950     1.6550 h1         1 A1A       0.025700
     26 H4          17.0600    -0.5130     0.1590 h1         1 A1A       0.025700
     27 H13         13.6730    -0.9450     5.3410 h5         1 A1A       0.043100
     28 H15         15.7200     5.1220     4.7480 h4         1 A1A       0.215000
     29 H1          14.3170    -1.0520     1.3660 h1         1 A1A       0.104700
     30 H7          13.8590     2.6780    -0.5640 ha         1 A1A       0.108500
     31 H9           9.6830     2.4700     0.3530 ha         1 A1A       0.111000
     32 H10          9.8330    -0.0020     0.4250 ha         1 A1A       0.111500
     33 H12         15.6470     1.5670     1.2010 hn         1 A1A       0.493000
     34 H16         14.7600     3.5650     6.4600 hn         1 A1A       0.361000
     35 H2          16.9260    -2.7860    -0.2300 ho         1 A1A       0.447000
     36 O1          16.0870    -2.3400    -0.0830 oh         1 A1A      -0.660000
@<TRIPOS>BOND
     1     1     8 ar  
     2     1     9 ar  
     3     2    12 1   
     4     2    13 1   
     5     2    20 1   
     6     2    21 1   
     7     3    14 ar  
     8     3    15 ar  
     9     3    22 1   
    10     4    13 ar  
    11     4    16 ar  
    12     4    23 1   
    13     5    10 ar  
    14     5    18 ar  
    15     5    19 1   
    16     6    10 1   
    17     6    11 2   
    18     6    24 1   
    19     7    12 1   
    20     7    25 1   
    21     7    26 1   
    22     7    36 1   
    23     8    10 ar  
    24     8    17 1   
    25     9    18 ar  
    26     9    27 1   
    27    11    19 1   
    28    11    28 1   
    29    12    17 1   
    30    12    29 1   
    31    13    14 ar  
    32    14    30 1   
    33    15    16 ar  
    34    15    31 1   
    35    16    32 1   
    36    17    33 1   
    37    19    34 1   
    38    35    36 1   
@<TRIPOS>SUBSTRUCTURE
     1 A1A         1 TEMP              0 ****  ****    0 ROOT
