@<TRIPOS>MOLECULE
A1A
   34    36     1     0     0
SMALL
abcg2


@<TRIPOS>ATOM
      1 C15         49.8640    16.7760    52.4440 cx         1 A1A      -0.142900
      2 C14         49.5440    15.4400    51.8260 cx         1 A1A      -0.045400
      3 C16         48.7460    16.6660    51.4670 cx         1 A1A      -0.142900
      4 C17         51.1720    15.5280    49.9180 ca         1 A1A      -0.196000
      5 C13         50.4610    14.7960    50.8570 ca         1 A1A      -0.047300
      6 C12         50.6160    13.4070    50.8830 ca         1 A1A      -0.164000
      7 C11         51.4650    12.7840    49.9960 ca         1 A1A      -0.001000
      8 C10         52.2050    13.5060    49.0530 ca         1 A1A      -0.082800
      9 C18         52.0410    14.9070    49.0120 ca         1 A1A       0.088600
     10 C02         53.6090    15.0940    47.1710 c          1 A1A       0.579200
     11 C03         53.7740    13.6680    47.2520 cc         1 A1A      -0.400200
     12 C04         53.1300    12.8700    48.1420 cd         1 A1A       0.153600
     13 C05         53.3670    11.4120    48.1580 c3         1 A1A      -0.337200
     14 P06         52.1280    10.3360    47.1650 p5         1 A1A       1.260500
     15 O07         52.1110    10.9530    45.7660 o          1 A1A      -0.902167
     16 O08         50.8020    10.4420    47.9240 o          1 A1A      -0.902167
     17 O09         52.7830     8.9530    47.2400 o          1 A1A      -0.902167
     18 N19         52.7330    15.6610    48.0830 n          1 A1A      -0.295000
     19 H1          50.7760    17.2680    52.1280 hc         1 A1A       0.061200
     20 H2          49.6260    16.9120    53.4910 hc         1 A1A       0.061200
     21 H3          49.0420    14.7350    52.4800 hc         1 A1A       0.068700
     22 H4          48.8850    17.0820    50.4770 hc         1 A1A       0.061200
     23 H5          47.7300    16.7220    51.8350 hc         1 A1A       0.061200
     24 H6          51.0490    16.6020    49.8910 ha         1 A1A       0.087000
     25 H7          50.0590    12.8170    51.6010 ha         1 A1A       0.096000
     26 H8          51.5420    11.7070    50.0000 ha         1 A1A       0.176000
     27 H9          51.4930    17.3450    47.8480 h1         1 A1A       0.029700
     28 H10         52.8260    17.5550    48.9970 h1         1 A1A       0.029700
     29 H11         53.1480    17.5200    47.2620 h1         1 A1A       0.029700
     30 H12         54.4880    13.2420    46.5580 ha         1 A1A       0.207000
     31 H13         53.3860    11.0290    49.1810 hc         1 A1A       0.039200
     32 H14         54.3510    11.2150    47.7270 hc         1 A1A       0.039200
     33 C20         52.5360    17.0990    48.0500 c3         1 A1A       0.081300
     34 O01         54.2130    15.7900    46.3560 o          1 A1A      -0.646000
@<TRIPOS>BOND
     1     1     2 1   
     2     1     3 1   
     3     1    19 1   
     4     1    20 1   
     5     2     3 1   
     6     2     5 1   
     7     2    21 1   
     8     3    22 1   
     9     3    23 1   
    10     4     5 ar  
    11     4     9 ar  
    12     4    24 1   
    13     5     6 ar  
    14     6     7 ar  
    15     6    25 1   
    16     7     8 ar  
    17     7    26 1   
    18     8     9 ar  
    19     8    12 1   
    20     9    18 1   
    21    10    11 1   
    22    10    18 1   
    23    10    34 2   
    24    11    12 2   
    25    11    30 1   
    26    12    13 1   
    27    13    14 1   
    28    13    31 1   
    29    13    32 1   
    30    14    15 1   
    31    14    16 1   
    32    14    17 1   
    33    18    33 1   
    34    27    33 1   
    35    28    33 1   
    36    29    33 1   
@<TRIPOS>SUBSTRUCTURE
     1 A1A         1 TEMP              0 ****  ****    0 ROOT
