@<TRIPOS>MOLECULE
A1A
   49    52     1     0     0
SMALL
abcg2


@<TRIPOS>ATOM
      1 N2          13.1400     5.8520     5.1050 ns         1 A1A      -0.146000
      2 C3          15.4960     4.4800     5.6440 c6         1 A1A      -0.016100
      3 C6          14.4620     3.1170     2.2290 ca         1 A1A      -0.183600
      4 C9          13.1350    -0.3210     1.5180 c6         1 A1A      -0.221700
      5 C12         14.7920    -0.5960    -0.3850 c6         1 A1A      -0.093400
      6 C14         16.6630    -1.0430     1.2850 c5         1 A1A      -0.077400
      7 C17         17.0160     0.6420    -0.3460 c5         1 A1A      -0.077400
      8 C19         12.8190     4.7250     2.9990 ca         1 A1A      -0.209000
      9 C1          13.9300     6.4040     6.0710 c          1 A1A       0.573000
     10 C10         12.0760    -1.0160     2.4020 c          1 A1A       0.725000
     11 C11         13.6860    -1.2530     0.4380 c6         1 A1A      -0.054400
     12 C13         15.8830     0.0290     0.4930 c5         1 A1A       0.121400
     13 C15         17.6360    -1.6520     0.2740 c5         1 A1A      -0.079900
     14 C16         17.8870    -0.5480    -0.7710 c5         1 A1A      -0.079900
     15 C18         13.2840     3.8210     2.0660 ca         1 A1A       0.249000
     16 C2          15.3640     5.9390     6.0610 c6         1 A1A      -0.160400
     17 C20         13.5740     4.9430     4.1460 ca         1 A1A       0.013000
     18 C4          14.7620     4.2390     4.3600 ca         1 A1A      -0.153300
     19 C5          15.1850     3.3410     3.3980 ca         1 A1A      -0.020000
     20 C7          15.0170     2.2630     1.1260 c          1 A1A       0.621700
     21 C8          14.2760     0.2920     2.3280 c6         1 A1A       0.100000
     22 F1          12.5470     3.6050     0.9670 f          1 A1A      -0.158000
     23 N1          15.2260     0.9610     1.4310 n          1 A1A      -0.381800
     24 O1          13.4940     7.2300     6.8490 o          1 A1A      -0.556000
     25 O2          15.2990     2.8020     0.0680 o          1 A1A      -0.613100
     26 O3          11.1750    -1.6340     1.8010 o          1 A1A      -0.730000
     27 O4          12.1930    -0.8900     3.6380 o          1 A1A      -0.730000
     28 H22         12.2000     6.2170     5.0240 hn         1 A1A       0.158000
     29 H5          15.0820     3.8370     6.4280 hc         1 A1A       0.058200
     30 H4          16.5470     4.2120     5.5430 hc         1 A1A       0.058200
     31 H1          12.6260     0.5110     1.0070 hc         1 A1A       0.038700
     32 H12         14.3650     0.1920    -1.0130 hc         1 A1A       0.036200
     33 H11         15.2330    -1.3270    -1.0680 hc         1 A1A       0.036200
     34 H13         17.2120    -0.5440     2.0880 hc         1 A1A       0.053700
     35 H14         16.0360    -1.8030     1.7490 hc         1 A1A       0.053700
     36 H20         17.5980     1.3220     0.2810 hc         1 A1A       0.053700
     37 H19         16.6580     1.2110    -1.2000 hc         1 A1A       0.053700
     38 H21         11.8900     5.2550     2.8300 ha         1 A1A       0.132000
     39 H9          12.8800    -1.5690    -0.2240 hc         1 A1A       0.044200
     40 H10         14.0670    -2.1670     0.9070 hc         1 A1A       0.044200
     41 H15         17.1990    -2.5350    -0.1950 hc         1 A1A       0.032700
     42 H16         18.5540    -1.9820     0.7600 hc         1 A1A       0.032700
     43 H17         17.6100    -0.8920    -1.7690 hc         1 A1A       0.032700
     44 H18         18.9370    -0.2620    -0.8240 hc         1 A1A       0.032700
     45 H3          15.7910     6.1120     7.0480 hc         1 A1A       0.070200
     46 H2          15.9080     6.5790     5.3580 hc         1 A1A       0.070200
     47 H6          16.1090     2.7960     3.5580 ha         1 A1A       0.125000
     48 H8          14.8000    -0.4680     2.9080 h1         1 A1A       0.062200
     49 H7          13.8840     1.0060     3.0450 h1         1 A1A       0.062200
@<TRIPOS>BOND
     1     1     9 1   
     2     1    17 1   
     3     1    28 1   
     4     2    16 1   
     5     2    18 1   
     6     2    29 1   
     7     2    30 1   
     8     3    15 ar  
     9     3    19 ar  
    10     3    20 1   
    11     4    10 1   
    12     4    11 1   
    13     4    21 1   
    14     4    31 1   
    15     5    11 1   
    16     5    12 1   
    17     5    32 1   
    18     5    33 1   
    19     6    12 1   
    20     6    13 1   
    21     6    34 1   
    22     6    35 1   
    23     7    12 1   
    24     7    14 1   
    25     7    36 1   
    26     7    37 1   
    27     8    15 ar  
    28     8    17 ar  
    29     8    38 1   
    30     9    16 1   
    31     9    24 2   
    32    10    26 1   
    33    10    27 1   
    34    11    39 1   
    35    11    40 1   
    36    12    23 1   
    37    13    14 1   
    38    13    41 1   
    39    13    42 1   
    40    14    43 1   
    41    14    44 1   
    42    15    22 1   
    43    16    45 1   
    44    16    46 1   
    45    17    18 ar  
    46    18    19 ar  
    47    19    47 1   
    48    20    23 1   
    49    20    25 2   
    50    21    23 1   
    51    21    48 1   
    52    21    49 1   
@<TRIPOS>SUBSTRUCTURE
     1 A1A         1 TEMP              0 ****  ****    0 ROOT
