@<TRIPOS>MOLECULE
A1A
   39    40     1     0     0
SMALL
abcg2


@<TRIPOS>ATOM
      1 N15          3.0310    37.8520    -6.3290 na         1 A1A       0.155800
      2 C16          3.4380    39.2290    -6.4890 c3         1 A1A       0.062900
      3 C18          3.2160    35.8060    -5.8880 cc         1 A1A       0.195500
      4 C19          3.9420    34.5830    -5.5160 c          1 A1A       0.529600
      5 C21          3.6980    32.2610    -5.1200 c3         1 A1A       0.168600
      6 C01          0.7210    35.0310    -6.2040 c3         1 A1A      -0.010800
      7 C02          1.8490    36.0070    -6.1900 cc         1 A1A      -0.121300
      8 C03          1.7770    37.3550    -6.4740 cd         1 A1A      -0.177300
      9 C04          0.6210    38.2160    -6.8490 c3         1 A1A       0.037200
     10 C05          0.1620    39.1110    -5.7270 ca         1 A1A      -0.113300
     11 C06         -0.1050    38.6170    -4.4590 ca         1 A1A      -0.069000
     12 C07         -0.5500    39.4760    -3.4660 ca         1 A1A      -0.106000
     13 C08         -0.7080    40.8110    -3.7950 ca         1 A1A       0.235300
     14 C09         -1.2090    41.8280    -2.8070 c3         1 A1A       0.268700
     15 C14         -0.0310    40.4750    -5.9340 ca         1 A1A       0.335900
     16 C22          2.5830    31.2440    -5.1500 c3         1 A1A      -0.097100
     17 F10         -1.3500    41.3200    -1.5810 f          1 A1A      -0.105333
     18 F11         -2.4010    42.3110    -3.1790 f          1 A1A      -0.105333
     19 F12         -0.3770    42.8690    -2.7140 f          1 A1A      -0.105333
     20 N13         -0.4560    41.3050    -4.9970 nb         1 A1A      -0.625000
     21 N17          3.9040    36.9370    -5.9780 nd         1 A1A      -0.450800
     22 O20          3.1350    33.5350    -5.4630 os         1 A1A      -0.448100
     23 O23          5.1260    34.5390    -5.2870 o          1 A1A      -0.468000
     24 H161         4.5220    39.2690    -6.4520 h1         1 A1A       0.064033
     25 H163         3.1020    39.6190    -7.4470 h1         1 A1A       0.064033
     26 H162         3.0300    39.8480    -5.6910 h1         1 A1A       0.064033
     27 H211         4.4820    32.0010    -5.8340 h1         1 A1A       0.049200
     28 H212         4.1520    32.3150    -4.1280 h1         1 A1A       0.049200
     29 H011         0.8850    34.2330    -6.9270 hc         1 A1A       0.045367
     30 H013         0.5820    34.5630    -5.2300 hc         1 A1A       0.045367
     31 H012        -0.2150    35.5230    -6.4640 hc         1 A1A       0.045367
     32 H042         0.8640    38.8220    -7.7250 hc         1 A1A       0.070700
     33 H041        -0.2080    37.5750    -7.1540 hc         1 A1A       0.070700
     34 H061         0.0330    37.5650    -4.2380 ha         1 A1A       0.137000
     35 H071        -0.7620    39.1010    -2.4750 ha         1 A1A       0.146000
     36 H141         0.1730    40.9090    -6.9080 h4         1 A1A       0.026100
     37 H221         2.9860    30.2640    -4.8970 hc         1 A1A       0.046033
     38 H222         1.8030    31.4820    -4.4260 hc         1 A1A       0.046033
     39 H223         2.1310    31.1750    -6.1390 hc         1 A1A       0.046033
@<TRIPOS>BOND
     1     1     2 1   
     2     1     8 1   
     3     1    21 1   
     4     2    24 1   
     5     2    25 1   
     6     2    26 1   
     7     3     4 1   
     8     3     7 1   
     9     3    21 2   
    10     4    22 1   
    11     4    23 2   
    12     5    16 1   
    13     5    22 1   
    14     5    27 1   
    15     5    28 1   
    16     6     7 1   
    17     6    29 1   
    18     6    30 1   
    19     6    31 1   
    20     7     8 2   
    21     8     9 1   
    22     9    10 1   
    23     9    32 1   
    24     9    33 1   
    25    10    11 ar  
    26    10    15 ar  
    27    11    12 ar  
    28    11    34 1   
    29    12    13 ar  
    30    12    35 1   
    31    13    14 1   
    32    13    20 ar  
    33    14    17 1   
    34    14    18 1   
    35    14    19 1   
    36    15    20 ar  
    37    15    36 1   
    38    16    37 1   
    39    16    38 1   
    40    16    39 1   
@<TRIPOS>SUBSTRUCTURE
     1 A1A         1 TEMP              0 ****  ****    0 ROOT
