@<TRIPOS>MOLECULE
A1A
   47    51     1     0     0
SMALL
abcg2


@<TRIPOS>ATOM
      1 C10          3.8760   -28.6980    24.9160 cx         1 A1A      -0.163000
      2 C11          4.5740   -27.6820    24.0750 cx         1 A1A      -0.116400
      3 C12          5.3140   -28.3470    25.1920 cx         1 A1A      -0.116400
      4 C13          2.5570   -29.1060    27.0480 cc         1 A1A      -0.242900
      5 C16          5.3270   -31.2110    28.0140 ca         1 A1A      -0.032300
      6 C17          6.0070   -32.3860    28.3120 ca         1 A1A      -0.140000
      7 C18          7.1840   -32.3560    29.0440 ca         1 A1A      -0.031000
      8 C19          7.7020   -31.1510    29.4990 ca         1 A1A      -0.248300
      9 C20          7.0020   -29.9900    29.2020 ca         1 A1A       0.229000
     10 C22          5.8330   -30.0000    28.4740 ca         1 A1A      -0.154000
     11 C23          8.9810   -31.0860    30.2710 c3         1 A1A       0.370300
     12 C27          0.5980   -25.5570    26.2460 cx         1 A1A       0.057700
     13 C28         -0.8510   -25.5310    25.8810 cx         1 A1A      -0.123400
     14 C29          0.1930   -25.2960    24.8350 cx         1 A1A      -0.123400
     15 C04          1.5890   -28.6620    27.9570 cc         1 A1A       0.192500
     16 C05          0.8650   -27.4260    27.7490 c          1 A1A       0.480500
     17 C09          2.8340   -28.3060    25.8930 cc         1 A1A       0.446900
     18 C14          3.0300   -30.2900    27.5980 cd         1 A1A      -0.124300
     19 C15          4.0810   -31.2490    27.1630 c3         1 A1A       0.026200
     20 F21          7.4750   -28.8150    29.6310 f          1 A1A      -0.155000
     21 F24          9.4940   -32.2990    30.4860 f          1 A1A      -0.107333
     22 F25          8.8200   -30.5110    31.4680 f          1 A1A      -0.107333
     23 F26          9.9150   -30.3760    29.6230 f          1 A1A      -0.107333
     24 N02          2.3300   -30.4500    28.7410 na         1 A1A       0.163800
     25 N03          1.4590   -29.4820    28.9840 nd         1 A1A      -0.444800
     26 N07          1.2210   -26.8130    26.5650 n          1 A1A      -0.133800
     27 N08          2.1780   -27.2160    25.6980 nd         1 A1A      -0.432300
     28 H101         3.7070   -29.6690    24.4590 hc         1 A1A       0.085700
     29 H111         4.8200   -27.9630    23.0590 hc         1 A1A       0.078200
     30 H112         4.2950   -26.6440    24.1950 hc         1 A1A       0.078200
     31 H122         6.0690   -29.0850    24.9540 hc         1 A1A       0.078200
     32 H121         5.5250   -27.7590    26.0770 hc         1 A1A       0.078200
     33 H171         5.6190   -33.3360    27.9700 ha         1 A1A       0.125000
     34 H181         7.6920   -33.2860    29.2570 ha         1 A1A       0.138000
     35 H221         5.3290   -29.0630    28.2710 ha         1 A1A       0.151000
     36 H271         0.9810   -24.7200    26.8200 h1         1 A1A       0.092700
     37 H281        -1.4400   -24.6970    26.2370 hc         1 A1A       0.080700
     38 H282        -1.3800   -26.4750    25.8540 hc         1 A1A       0.080700
     39 H291         0.3390   -24.2930    24.4580 hc         1 A1A       0.080700
     40 H292         0.3650   -26.0760    24.1060 hc         1 A1A       0.080700
     41 H012         1.6170   -31.5250    30.3490 h1         1 A1A       0.066367
     42 H013         2.5450   -32.4810    29.1850 h1         1 A1A       0.066367
     43 H011         3.3840   -31.3810    30.2960 h1         1 A1A       0.066367
     44 H151         3.6820   -32.2660    27.1460 hc         1 A1A       0.076200
     45 H152         4.3570   -31.0210    26.1330 hc         1 A1A       0.076200
     46 O06          0.0400   -26.9530    28.5120 o          1 A1A      -0.505000
     47 C01          2.4850   -31.5240    29.6980 c3         1 A1A       0.058900
@<TRIPOS>BOND
     1     1     2 1   
     2     1     3 1   
     3     1    17 1   
     4     1    28 1   
     5     2     3 1   
     6     2    29 1   
     7     2    30 1   
     8     3    31 1   
     9     3    32 1   
    10     4    15 1   
    11     4    17 1   
    12     4    18 2   
    13     5     6 ar  
    14     5    10 ar  
    15     5    19 1   
    16     6     7 ar  
    17     6    33 1   
    18     7     8 ar  
    19     7    34 1   
    20     8     9 ar  
    21     8    11 1   
    22     9    10 ar  
    23     9    20 1   
    24    10    35 1   
    25    11    21 1   
    26    11    22 1   
    27    11    23 1   
    28    12    13 1   
    29    12    14 1   
    30    12    26 1   
    31    12    36 1   
    32    13    14 1   
    33    13    37 1   
    34    13    38 1   
    35    14    39 1   
    36    14    40 1   
    37    15    16 1   
    38    15    25 2   
    39    16    26 1   
    40    16    46 2   
    41    17    27 2   
    42    18    19 1   
    43    18    24 1   
    44    19    44 1   
    45    19    45 1   
    46    24    25 1   
    47    24    47 1   
    48    26    27 1   
    49    41    47 1   
    50    42    47 1   
    51    43    47 1   
@<TRIPOS>SUBSTRUCTURE
     1 A1A         1 TEMP              0 ****  ****    0 ROOT
