@<TRIPOS>MOLECULE
A1A
   51    54     1     0     0
SMALL
abcg2


@<TRIPOS>ATOM
      1 N1          -9.9250     9.8260   -33.5160 ns         1 A1A      -0.530900
      2 N3         -10.3190    18.1500   -29.8730 nu         1 A1A      -0.681100
      3 C4         -10.6310    12.7660   -31.5330 ca         1 A1A      -0.031000
      4 C5          -9.9620    13.9880   -31.4710 ca         1 A1A      -0.042200
      5 C6         -10.5040    15.1130   -30.8150 cp         1 A1A      -0.032000
      6 C7          -9.5230    16.1560   -30.9620 cp         1 A1A      -0.249000
      7 C8          -9.3670    17.4980   -30.5900 ca         1 A1A       0.439900
      8 C13        -10.5390    21.7480   -29.8110 c5         1 A1A      -0.162400
      9 C15         -7.3250    17.5110   -31.6090 ca         1 A1A       0.185900
     10 C17        -11.7640    15.0170   -30.2250 ca         1 A1A      -0.085000
     11 C1         -10.6620    10.8740   -33.0870 c          1 A1A       0.660100
     12 C12         -9.6920    21.4650   -28.5730 c5         1 A1A      -0.082400
     13 C14        -10.6360    20.4120   -30.5060 c          1 A1A       0.566000
     14 C16         -8.4520    15.6130   -31.6870 ca         1 A1A       0.199500
     15 C18        -12.4370    13.8110   -30.2960 ca         1 A1A      -0.114000
     16 C19        -11.8790    12.7000   -30.9280 ca         1 A1A      -0.088000
     17 C2         -10.4030     8.9130   -34.5340 c3         1 A1A       0.120000
     18 C3          -9.4610     7.7300   -34.6600 c3         1 A1A      -0.113100
     19 C9          -9.9190    19.9760   -28.2640 c5         1 A1A       0.141400
     20 N2         -10.0270    11.6670   -32.1560 ns         1 A1A      -0.191000
     21 N4         -10.2180    19.4760   -29.6130 n          1 A1A      -0.250200
     22 N5          -8.2590    18.1570   -30.9220 nb         1 A1A      -0.265000
     23 N6          -7.3420    16.2590   -32.0290 nb         1 A1A      -0.240000
     24 N7          -8.7280    14.3200   -31.9840 na         1 A1A      -0.326300
     25 O1         -11.7960    11.1000   -33.4820 o          1 A1A      -0.618100
     26 H1          -8.9730     9.7190   -33.2060 hn         1 A1A       0.307500
     27 H8         -11.2360    17.7410   -29.7790 hn         1 A1A       0.511000
     28 H10        -10.9120    20.1310   -26.3490 hc         1 A1A       0.046200
     29 H11        -12.0090    20.2780   -27.7240 hc         1 A1A       0.046200
     30 H9         -11.3630    18.6970   -27.2670 hc         1 A1A       0.046200
     31 H18        -10.1150    22.5040   -30.4710 hc         1 A1A       0.077700
     32 H17        -11.5520    22.0730   -29.5560 hc         1 A1A       0.077700
     33 H19         -6.4410    18.0890   -31.8570 h5         1 A1A       0.046100
     34 H21        -12.2190    15.8540   -29.7140 ha         1 A1A       0.108000
     35 H14         -8.4300    19.7780   -26.7350 hc         1 A1A       0.046200
     36 H13         -8.8500    18.2470   -27.4980 hc         1 A1A       0.046200
     37 H12         -7.8290    19.4110   -28.3560 hc         1 A1A       0.046200
     38 H16         -8.6380    21.6310   -28.8030 hc         1 A1A       0.061700
     39 H15         -9.9500    22.0950   -27.7230 hc         1 A1A       0.061700
     40 H22        -13.4130    13.7170   -29.8380 ha         1 A1A       0.117000
     41 H23        -12.4230    11.7660   -30.9370 ha         1 A1A       0.132000
     42 H3         -10.4910     9.4200   -35.4990 h1         1 A1A       0.052200
     43 H2         -11.4020     8.5600   -34.2690 h1         1 A1A       0.052200
     44 H4          -9.8200     7.0490   -35.4310 hc         1 A1A       0.042367
     45 H6          -8.4560     8.0480   -34.9410 hc         1 A1A       0.042367
     46 H5          -9.3950     7.1750   -33.7240 hc         1 A1A       0.042367
     47 H7          -9.0650    11.4730   -31.9230 hn         1 A1A       0.145000
     48 H20         -8.1270    13.7180   -32.5260 hn         1 A1A       0.363000
     49 O2         -11.0240    20.1770   -31.6310 o          1 A1A      -0.527000
     50 C10        -11.1230    19.7590   -27.3520 c3         1 A1A      -0.100600
     51 C11         -8.6830    19.3080   -27.6870 c3         1 A1A      -0.100600
@<TRIPOS>BOND
     1     1    11 1   
     2     1    17 1   
     3     1    26 1   
     4     2     7 1   
     5     2    21 1   
     6     2    27 1   
     7     3     4 ar  
     8     3    16 ar  
     9     3    20 1   
    10     4     5 ar  
    11     4    24 1   
    12     5     6 1   
    13     5    10 ar  
    14     6     7 ar  
    15     6    14 ar  
    16     7    22 ar  
    17     8    12 1   
    18     8    13 1   
    19     8    31 1   
    20     8    32 1   
    21     9    22 ar  
    22     9    23 ar  
    23     9    33 1   
    24    10    15 ar  
    25    10    34 1   
    26    11    20 1   
    27    11    25 2   
    28    12    19 1   
    29    12    38 1   
    30    12    39 1   
    31    13    21 1   
    32    13    49 2   
    33    14    23 ar  
    34    14    24 1   
    35    15    16 ar  
    36    15    40 1   
    37    16    41 1   
    38    17    18 1   
    39    17    42 1   
    40    17    43 1   
    41    18    44 1   
    42    18    45 1   
    43    18    46 1   
    44    19    21 1   
    45    19    50 1   
    46    19    51 1   
    47    20    47 1   
    48    24    48 1   
    49    28    50 1   
    50    29    50 1   
    51    30    50 1   
    52    35    51 1   
    53    36    51 1   
    54    37    51 1   
@<TRIPOS>SUBSTRUCTURE
     1 A1A         1 TEMP              0 ****  ****    0 ROOT
