@<TRIPOS>MOLECULE
A1A
   51    54     1     0     0
SMALL
abcg2


@<TRIPOS>ATOM
      1 C01          8.9470   -49.3680   -37.9230 ca         1 A1A      -0.118000
      2 C02          8.0320   -49.8080   -36.9810 ca         1 A1A      -0.080000
      3 C03          7.1390   -50.8370   -37.2810 cp         1 A1A      -0.147500
      4 C04          6.1540   -51.2840   -36.2710 cp         1 A1A       0.382500
      5 C05          5.8950   -52.6320   -35.9970 cq         1 A1A      -0.046000
      6 C06          6.6760   -53.7390   -36.5880 cq         1 A1A      -0.014000
      7 C07          6.0260   -54.8020   -37.2130 ca         1 A1A      -0.100500
      8 C08          6.7440   -55.8580   -37.7440 ca         1 A1A      -0.072500
      9 C09          8.1340   -55.8620   -37.6430 ca         1 A1A      -0.016000
     10 C10          8.8800   -56.9480   -38.1900 cg         1 A1A       0.323000
     11 C11          8.7970   -54.8100   -37.0080 ca         1 A1A      -0.072500
     12 C12          8.0680   -53.7590   -36.4890 ca         1 A1A      -0.100500
     13 C14          8.9930   -49.9260   -39.2000 ca         1 A1A      -0.065300
     14 C15          4.8850   -52.9480   -35.0890 ca         1 A1A      -0.162000
     15 C16          4.1910   -51.9290   -34.4550 ca         1 A1A       0.095100
     16 C17          2.7860   -53.4110   -33.2400 c3         1 A1A       0.172600
     17 C18          8.0900   -50.9410   -39.5000 ca         1 A1A      -0.118000
     18 C19          4.5630   -50.6150   -34.7540 ca         1 A1A       0.318900
     19 C20          7.1770   -51.3920   -38.5580 ca         1 A1A      -0.080000
     20 C21          1.7090   -53.3170   -32.1850 c5         1 A1A      -0.097700
     21 C22          2.1710   -52.7350   -30.8510 c5         1 A1A      -0.083400
     22 C23          1.1030   -53.2310   -29.8860 c5         1 A1A       0.155800
     23 C24          1.1880   -54.6960   -31.7660 c5         1 A1A       0.161800
     24 N01          5.4980   -50.3160   -35.6300 nb         1 A1A      -0.637000
     25 N02          9.4790   -57.8280   -38.6310 n1         1 A1A      -0.450000
     26 N03          0.7510   -54.5660   -30.3750 n7         1 A1A      -0.868400
     27 O01          3.2080   -52.0930   -33.5620 os         1 A1A      -0.337100
     28 H01          9.6410   -48.5780   -37.6600 ha         1 A1A       0.113000
     29 H02          8.0200   -49.3580   -35.9960 ha         1 A1A       0.119000
     30 H03          4.9470   -54.7970   -37.3010 ha         1 A1A       0.125500
     31 H04          6.2300   -56.6720   -38.2360 ha         1 A1A       0.128000
     32 H07          9.8750   -54.8210   -36.9200 ha         1 A1A       0.128000
     33 H08          8.5840   -52.9480   -35.9920 ha         1 A1A       0.125500
     34 H12          9.6450   -48.4710   -40.6430 hc         1 A1A       0.043367
     35 H13         10.9570   -49.2650   -39.7900 hc         1 A1A       0.043367
     36 H11         10.0740   -50.1270   -41.0520 hc         1 A1A       0.043367
     37 H14          4.6840   -53.9890   -34.8720 ha         1 A1A       0.127000
     38 H15          2.4100   -53.9150   -34.1390 h1         1 A1A       0.039700
     39 H16          3.6300   -53.9970   -32.8550 h1         1 A1A       0.039700
     40 H17          8.0950   -51.3880   -40.4880 ha         1 A1A       0.113000
     41 H18          4.0650   -49.7890   -34.2550 h4         1 A1A       0.035100
     42 H19          6.4810   -52.1740   -38.8310 ha         1 A1A       0.119000
     43 H20          0.8760   -52.7190   -32.5710 hc         1 A1A       0.064700
     44 H22          3.1500   -53.1480   -30.5860 hc         1 A1A       0.058200
     45 H21          2.2580   -51.6490   -30.8520 hc         1 A1A       0.058200
     46 H1           1.4680   -53.2640   -28.8560 h1         1 A1A       0.040700
     47 H23          0.2460   -52.5470   -29.8990 h1         1 A1A       0.040700
     48 H27          0.3790   -55.0400   -32.4140 h1         1 A1A       0.044200
     49 H26          1.9920   -55.4380   -31.8480 h1         1 A1A       0.044200
     50 H2          -0.2410   -54.7260   -30.2930 hn         1 A1A       0.413000
     51 C13          9.9700   -49.4260   -40.2240 c3         1 A1A      -0.048800
@<TRIPOS>BOND
     1     1     2 ar  
     2     1    13 ar  
     3     1    28 1   
     4     2     3 ar  
     5     2    29 1   
     6     3     4 1   
     7     3    19 ar  
     8     4     5 1   
     9     4    24 ar  
    10     5     6 1   
    11     5    14 2   
    12     6     7 1   
    13     6    12 2   
    14     7     8 ar  
    15     7    30 1   
    16     8     9 ar  
    17     8    31 1   
    18     9    10 1   
    19     9    11 ar  
    20    10    25 3   
    21    11    12 ar  
    22    11    32 1   
    23    12    33 1   
    24    13    17 ar  
    25    13    51 1   
    26    14    15 ar  
    27    14    37 1   
    28    15    18 ar  
    29    15    27 1   
    30    16    20 1   
    31    16    27 1   
    32    16    38 1   
    33    16    39 1   
    34    17    19 ar  
    35    17    40 1   
    36    18    24 ar  
    37    18    41 1   
    38    19    42 1   
    39    20    21 1   
    40    20    23 1   
    41    20    43 1   
    42    21    22 1   
    43    21    44 1   
    44    21    45 1   
    45    22    26 1   
    46    22    46 1   
    47    22    47 1   
    48    23    26 1   
    49    23    48 1   
    50    23    49 1   
    51    26    50 1   
    52    34    51 1   
    53    35    51 1   
    54    36    51 1   
@<TRIPOS>SUBSTRUCTURE
     1 A1A         1 TEMP              0 ****  ****    0 ROOT
