@<TRIPOS>MOLECULE
A1A
   55    58     1     0     0
SMALL
abcg2


@<TRIPOS>ATOM
      1 C1          18.3100    17.2140   -62.9380 ca         1 A1A      -0.164000
      2 C2          17.6620    15.9790   -62.7560 ca         1 A1A       0.181100
      3 C3          16.8600    15.7620   -61.6320 ca         1 A1A      -0.204000
      4 C12         15.7630    18.6460   -57.6950 c6         1 A1A       0.042700
      5 C13         14.2820    18.4110   -57.4310 c6         1 A1A      -0.083400
      6 C14         13.9170    18.9920   -56.0760 c6         1 A1A      -0.165400
      7 C15         14.7840    18.4710   -54.9640 c          1 A1A       0.578000
      8 C17         16.6150    18.0470   -56.5830 c          1 A1A       0.550000
      9 C20         17.3620    13.7490   -63.6040 c6         1 A1A       0.176300
     10 C21         18.1980    12.9240   -62.6400 c6         1 A1A      -0.104400
     11 C22         19.5840    12.6820   -63.2110 c6         1 A1A      -0.070400
     12 C23         19.5340    12.0860   -64.6170 c6         1 A1A       0.183500
     13 C25         17.4040    13.1340   -64.9900 c6         1 A1A       0.168800
     14 C27         18.0520    13.4410   -67.8470 c3         1 A1A      -0.093100
     15 C28         20.9580    11.8690   -65.1180 c3         1 A1A      -0.091100
     16 C4          16.7360    16.7960   -60.7220 ca         1 A1A      -0.037300
     17 C5          17.3720    18.0090   -60.9030 ca         1 A1A      -0.204600
     18 C6          18.1690    18.2320   -62.0180 ca         1 A1A       0.002000
     19 C7          15.9540    16.8350   -59.4480 c5         1 A1A       0.139300
     20 C9          17.0580    18.8890   -59.7690 c          1 A1A       0.599600
     21 N16         16.0480    18.0450   -55.3290 ns         1 A1A      -0.485500
     22 N24         18.7530    12.9590   -65.4970 n3         1 A1A      -0.704600
     23 N8          16.2040    18.1810   -58.9720 n          1 A1A      -0.412800
     24 O10         17.8670    15.0800   -63.7270 os         1 A1A      -0.325100
     25 O11         17.4550    20.0220   -59.5600 o          1 A1A      -0.537000
     26 O18         17.7270    17.6150   -56.7650 o          1 A1A      -0.499000
     27 O19         14.4410    18.4270   -53.8060 o          1 A1A      -0.513000
     28 H1          18.9250    17.3540   -63.8180 ha         1 A1A       0.136000
     29 H2          16.3480    14.8250   -61.4610 ha         1 A1A       0.122000
     30 H3          15.9450    19.7280   -57.6640 h1         1 A1A       0.108700
     31 H4          13.6940    18.8910   -58.2130 hc         1 A1A       0.063200
     32 H5          14.0450    17.3440   -57.4550 hc         1 A1A       0.063200
     33 H6          14.0310    20.0820   -56.0920 hc         1 A1A       0.083700
     34 H7          12.8780    18.7890   -55.8190 hc         1 A1A       0.083700
     35 H8          16.3140    13.7780   -63.2880 h1         1 A1A       0.044700
     36 H9          17.6860    11.9680   -62.4980 hc         1 A1A       0.050700
     37 H10         18.2560    13.3890   -61.6540 hc         1 A1A       0.050700
     38 H11         20.1320    11.9980   -62.5600 hc         1 A1A       0.054200
     39 H12         20.1580    13.6140   -63.2370 hc         1 A1A       0.054200
     40 H13         19.0430    11.0960   -64.5420 h1         1 A1A       0.014700
     41 H14         16.8380    13.7750   -65.6660 h1         1 A1A       0.043200
     42 H15         16.8570    12.1760   -64.9380 h1         1 A1A       0.043200
     43 H16         18.2610    11.4910   -66.9510 h1         1 A1A       0.029700
     44 H17         19.7600    12.3660   -67.2080 h1         1 A1A       0.029700
     45 H18         18.2540    13.1200   -68.8690 hc         1 A1A       0.038367
     46 H19         16.9700    13.4790   -67.7320 hc         1 A1A       0.038367
     47 H20         18.4420    14.4540   -67.7320 hc         1 A1A       0.038367
     48 H21         21.5470    11.3860   -64.3390 hc         1 A1A       0.040033
     49 H22         21.0130    11.2320   -65.9990 hc         1 A1A       0.040033
     50 H23         21.4330    12.8230   -65.3560 hc         1 A1A       0.040033
     51 H24         18.6720    19.1790   -62.1680 ha         1 A1A       0.136000
     52 H25         14.8900    16.6590   -59.6220 h1         1 A1A       0.062700
     53 H26         16.3010    16.0820   -58.7340 h1         1 A1A       0.062700
     54 H27         16.6310    17.6880   -54.5800 hn         1 A1A       0.329500
     55 C26         18.7300    12.4870   -66.8740 c3         1 A1A       0.166800
@<TRIPOS>BOND
     1     1     2 ar  
     2     1    18 ar  
     3     1    28 1   
     4     2     3 ar  
     5     2    24 1   
     6     3    16 ar  
     7     3    29 1   
     8     4     5 1   
     9     4     8 1   
    10     4    23 1   
    11     4    30 1   
    12     5     6 1   
    13     5    31 1   
    14     5    32 1   
    15     6     7 1   
    16     6    33 1   
    17     6    34 1   
    18     7    21 1   
    19     7    27 2   
    20     8    21 1   
    21     8    26 2   
    22     9    10 1   
    23     9    13 1   
    24     9    24 1   
    25     9    35 1   
    26    10    11 1   
    27    10    36 1   
    28    10    37 1   
    29    11    12 1   
    30    11    38 1   
    31    11    39 1   
    32    12    15 1   
    33    12    22 1   
    34    12    40 1   
    35    13    22 1   
    36    13    41 1   
    37    13    42 1   
    38    14    45 1   
    39    14    46 1   
    40    14    47 1   
    41    14    55 1   
    42    15    48 1   
    43    15    49 1   
    44    15    50 1   
    45    16    17 ar  
    46    16    19 1   
    47    17    18 ar  
    48    17    20 1   
    49    18    51 1   
    50    19    23 1   
    51    19    52 1   
    52    19    53 1   
    53    20    23 1   
    54    20    25 2   
    55    21    54 1   
    56    22    55 1   
    57    43    55 1   
    58    44    55 1   
@<TRIPOS>SUBSTRUCTURE
     1 A1A         1 TEMP              0 ****  ****    0 ROOT
