@<TRIPOS>MOLECULE
A1A
   37    40     1     0     0
SMALL
abcg2


@<TRIPOS>ATOM
      1 N2          14.6030     0.4310     0.0080 nc         1 A1A      -0.039600
      2 C3          14.9140     2.0120     3.8130 cc         1 A1A      -0.073000
      3 C6          14.1570    -1.7730     0.6210 c3         1 A1A       0.081000
      4 C9          11.1450     0.2630    -1.8990 ca         1 A1A      -0.090600
      5 C12          9.5760     2.4950    -2.3050 ca         1 A1A      -0.102000
      6 C14         10.5580     0.9290    -0.8390 ca         1 A1A      -0.255500
      7 C1          15.2760     4.4220     4.6120 c3         1 A1A      -0.024800
      8 C10         10.9490     0.7100    -3.1920 ca         1 A1A      -0.047000
      9 C11         10.1580     1.8360    -3.3840 ca         1 A1A      -0.068000
     10 C13          9.7690     2.0470    -1.0020 ca         1 A1A       0.004000
     11 C15         14.5340    -0.1080     2.3910 c          1 A1A       0.592600
     12 C2          15.1190     3.3420     3.5960 cd         1 A1A      -0.204300
     13 C4          14.7960     1.2870     2.6040 cc         1 A1A      -0.168600
     14 C5          14.9110     2.0820     1.4870 cd         1 A1A      -0.015600
     15 C7          12.6520    -2.0180     0.6400 c3         1 A1A       0.098000
     16 C8          11.9580    -0.9020    -1.4820 c          1 A1A       0.595600
     17 N1          14.8150     1.6540     0.2080 nd         1 A1A      -0.206400
     18 N3          14.4870    -0.4190     1.0320 n          1 A1A      -0.179800
     19 N4          11.9240    -1.0100    -0.1110 n          1 A1A      -0.483200
     20 O4          14.3680    -0.9580     3.2440 o          1 A1A      -0.528000
     21 S1          10.9870     0.1530     0.6810 sy         1 A1A       1.179300
     22 S2          15.1730     3.7240     1.9080 ss         1 A1A       0.292000
     23 H4          14.8460     1.5740     4.7990 ha         1 A1A       0.153000
     24 H6          14.6440    -2.4850     1.2840 h1         1 A1A       0.087700
     25 H5          14.5600    -1.9160    -0.3780 h1         1 A1A       0.087700
     26 H11          8.9660     3.3710    -2.4790 ha         1 A1A       0.124000
     27 H3          15.4600     5.3940     4.1580 hc         1 A1A       0.050700
     28 H2          14.3740     4.5050     5.2200 hc         1 A1A       0.050700
     29 H1          16.1080     4.2020     5.2810 hc         1 A1A       0.050700
     30 H9          11.4030     0.1970    -4.0300 ha         1 A1A       0.143000
     31 H10          9.9910     2.2070    -4.3860 ha         1 A1A       0.126000
     32 H12          9.3180     2.5590    -0.1630 ha         1 A1A       0.134000
     33 H8          12.2770    -2.0280     1.6630 h1         1 A1A       0.075700
     34 H7          12.4400    -3.0010     0.2190 h1         1 A1A       0.075700
     35 O1          12.5630    -1.6530    -2.2060 o          1 A1A      -0.481000
     36 O2           9.8580    -0.4910     1.3180 o          1 A1A      -0.517000
     37 O3          11.8330     1.0000     1.4980 o          1 A1A      -0.517000
@<TRIPOS>BOND
     1     1    17 2   
     2     1    18 1   
     3     2    12 2   
     4     2    13 1   
     5     2    23 1   
     6     3    15 1   
     7     3    18 1   
     8     3    24 1   
     9     3    25 1   
    10     4     6 ar  
    11     4     8 ar  
    12     4    16 1   
    13     5     9 ar  
    14     5    10 ar  
    15     5    26 1   
    16     6    10 ar  
    17     6    21 1   
    18     7    12 1   
    19     7    27 1   
    20     7    28 1   
    21     7    29 1   
    22     8     9 ar  
    23     8    30 1   
    24     9    31 1   
    25    10    32 1   
    26    11    13 1   
    27    11    18 1   
    28    11    20 2   
    29    12    22 1   
    30    13    14 2   
    31    14    17 1   
    32    14    22 1   
    33    15    19 1   
    34    15    33 1   
    35    15    34 1   
    36    16    19 1   
    37    16    35 2   
    38    19    21 1   
    39    21    36 2   
    40    21    37 2   
@<TRIPOS>SUBSTRUCTURE
     1 A1A         1 TEMP              0 ****  ****    0 ROOT
