@<TRIPOS>MOLECULE
A1A
   37    39     1     0     0
SMALL
abcg2


@<TRIPOS>ATOM
      1 N2          11.4980     1.3510    -2.3760 nb         1 A1A      -0.746000
      2 C3           9.8950    -0.0390    -1.2550 ca         1 A1A      -0.238000
      3 C6          14.3190     0.9650     1.2470 cc         1 A1A      -0.318500
      4 C9          17.6260     2.1390     0.2170 ca         1 A1A      -0.060000
      5 C12         16.9540    -0.1670    -1.3100 ca         1 A1A      -0.057300
      6 C14         16.0860     0.3570    -0.3460 ca         1 A1A      -0.147000
      7 C1          10.7360     0.4500    -4.8720 c3         1 A1A       0.228100
      8 C10         18.4900     1.6370    -0.7290 ca         1 A1A      -0.118000
      9 C11         18.1540     0.5000    -1.4800 ca         1 A1A      -0.082000
     10 C13         16.5870    -1.3810    -2.1030 c3         1 A1A      -0.052800
     11 C15         11.8850     1.8000    -1.1900 ca         1 A1A       0.382900
     12 C2          10.5280     0.4360    -2.4260 ca         1 A1A       0.630900
     13 C4          10.2930     0.4560    -0.0410 ca         1 A1A       0.013000
     14 C5          11.3240     1.4010     0.0090 ca         1 A1A       0.098000
     15 C7          15.3560     1.8290     1.3350 cd         1 A1A      -0.030200
     16 C8          16.3990     1.4940     0.4180 ca         1 A1A      -0.104800
     17 N1          10.1660    -0.0270    -3.6390 nu         1 A1A      -0.939100
     18 N3          11.7580     1.9400     1.2480 nu         1 A1A      -0.858100
     19 O1          13.0820     1.8390     3.3540 o          1 A1A      -0.531500
     20 O2          12.3030    -0.2900     2.2300 o          1 A1A      -0.531500
     21 S1          12.8260     1.0610     2.1590 sy         1 A1A       1.173200
     22 S2          14.5310    -0.2870     0.0690 ss         1 A1A       0.186400
     23 H5           9.1020    -0.7730    -1.3230 ha         1 A1A       0.125000
     24 H8          17.8830     3.0160     0.7990 ha         1 A1A       0.120000
     25 H1          10.2540    -0.0740    -5.6940 h1         1 A1A       0.040033
     26 H2          10.5800     1.5220    -5.0120 h1         1 A1A       0.040033
     27 H3          11.8080     0.2580    -4.9290 h1         1 A1A       0.040033
     28 H9          19.4420     2.1200    -0.9010 ha         1 A1A       0.117000
     29 H10         18.8570     0.1300    -2.2160 ha         1 A1A       0.114000
     30 H12         16.4120    -2.2410    -1.4530 hc         1 A1A       0.049367
     31 H11         15.6710    -1.2190    -2.6760 hc         1 A1A       0.049367
     32 H13         17.3760    -1.6470    -2.8040 hc         1 A1A       0.049367
     33 H14         12.6840     2.5360    -1.1910 h4         1 A1A       0.015100
     34 H6           9.8110     0.1250     0.8680 ha         1 A1A       0.141000
     35 H7          15.3960     2.6670     2.0160 ha         1 A1A       0.218000
     36 H4           9.4110    -0.6870    -3.6880 hn         1 A1A       0.497000
     37 H15         11.9960     2.9270     1.2330 hn         1 A1A       0.487000
@<TRIPOS>BOND
     1     1    11 ar  
     2     1    12 ar  
     3     2    12 ar  
     4     2    13 ar  
     5     2    23 1   
     6     3    15 2   
     7     3    21 1   
     8     3    22 1   
     9     4     8 ar  
    10     4    16 ar  
    11     4    24 1   
    12     5     6 ar  
    13     5     9 ar  
    14     5    10 1   
    15     6    16 ar  
    16     6    22 1   
    17     7    17 1   
    18     7    25 1   
    19     7    26 1   
    20     7    27 1   
    21     8     9 ar  
    22     8    28 1   
    23     9    29 1   
    24    10    30 1   
    25    10    31 1   
    26    10    32 1   
    27    11    14 ar  
    28    11    33 1   
    29    12    17 1   
    30    13    14 ar  
    31    13    34 1   
    32    14    18 1   
    33    15    16 1   
    34    15    35 1   
    35    17    36 1   
    36    18    21 1   
    37    18    37 1   
    38    19    21 2   
    39    20    21 2   
@<TRIPOS>SUBSTRUCTURE
     1 A1A         1 TEMP              0 ****  ****    0 ROOT
