@<TRIPOS>MOLECULE
A1A
   48    51     1     0     0
SMALL
abcg2


@<TRIPOS>ATOM
      1 C01         -0.4900   -25.6240    26.1810 c3         1 A1A      -0.113100
      2 C02          0.8420   -25.5090    26.9020 c3         1 A1A       0.096000
      3 C04          2.3830   -27.2450    26.1480 cc         1 A1A      -0.048400
      4 C05          3.0570   -28.4130    26.2010 cd         1 A1A      -0.086400
      5 C06          4.0100   -28.8250    25.1420 cx         1 A1A      -0.069500
      6 C07          4.7610   -27.8220    24.3240 cx         1 A1A      -0.129400
      7 C08          5.4910   -28.6420    25.3410 cx         1 A1A      -0.129400
      8 C09          2.7670   -29.2410    27.3390 cd         1 A1A      -0.091800
      9 C10          3.1970   -30.4690    27.8230 cc         1 A1A      -0.149300
     10 C11          4.2250   -31.4290    27.2910 c3         1 A1A       0.288100
     11 C13          5.4320   -31.4990    28.2210 ca         1 A1A      -0.152300
     12 C14          6.0340   -32.6900    28.5890 ca         1 A1A      -0.093000
     13 C15          7.1480   -32.6710    29.4220 ca         1 A1A      -0.105000
     14 C16          7.6170   -31.4430    29.8430 ca         1 A1A       0.236300
     15 C18          6.0030   -30.3210    28.7090 ca         1 A1A       0.355900
     16 C19          8.8170   -31.2960    30.7370 c3         1 A1A       0.268700
     17 C26          1.8260   -28.8080    28.2910 cd         1 A1A       0.176500
     18 C27          1.1260   -27.5410    28.2100 c          1 A1A       0.493500
     19 F20          9.8180   -30.6690    30.1060 f          1 A1A      -0.105000
     20 F21          8.5300   -30.5730    31.8240 f          1 A1A      -0.105000
     21 F22          9.2860   -32.4740    31.1550 f          1 A1A      -0.105000
     22 N03          1.4860   -26.8050    27.1060 n          1 A1A      -0.301000
     23 N12          3.6250   -32.6870    26.9010 n8         1 A1A      -0.998200
     24 N17          7.0640   -30.2890    29.4920 nb         1 A1A      -0.622000
     25 N23          2.5080   -30.6640    28.9740 na         1 A1A       0.168800
     26 N25          1.6760   -29.6850    29.2720 nc         1 A1A      -0.449800
     27 H012        -0.9220   -24.6330    26.0420 hc         1 A1A       0.046367
     28 H011        -0.3680   -26.0780    25.1970 hc         1 A1A       0.046367
     29 H013        -1.2000   -26.2230    26.7500 hc         1 A1A       0.046367
     30 H021         1.5310   -24.8890    26.3300 h1         1 A1A       0.059200
     31 H022         0.7140   -25.0310    27.8710 h1         1 A1A       0.059200
     32 H041         2.5170   -26.5600    25.3230 h4         1 A1A       0.197000
     33 H061         3.7260   -29.7330    24.6170 hc         1 A1A       0.085700
     34 H071         4.6240   -26.7690    24.5320 hc         1 A1A       0.072450
     35 H072         4.9140   -28.0480    23.2770 hc         1 A1A       0.072450
     36 H081         6.1540   -29.4260    24.9990 hc         1 A1A       0.072450
     37 H082         5.8130   -28.1440    26.2470 hc         1 A1A       0.072450
     38 H111         4.5930   -30.9730    26.3700 h1         1 A1A       0.095700
     39 H141         5.6480   -33.6390    28.2430 ha         1 A1A       0.119000
     40 H151         7.6180   -33.5970    29.7190 ha         1 A1A       0.144000
     41 H181         5.5740   -29.3580    28.4490 h4         1 A1A       0.044100
     42 H243         2.1620   -31.5350    30.8120 h1         1 A1A       0.063033
     43 H242         1.9250   -32.6250    29.4370 h1         1 A1A       0.063033
     44 H241         3.5640   -32.1820    29.9580 h1         1 A1A       0.063033
     45 H1           4.2550   -33.2040    26.3010 hn         1 A1A       0.407000
     46 H122         3.4200   -33.2830    27.6930 hn         1 A1A       0.407000
     47 O28          0.3060   -27.1470    29.0280 o          1 A1A      -0.526000
     48 C24          2.5440   -31.8250    29.8390 c3         1 A1A       0.059900
@<TRIPOS>BOND
     1     1     2 1   
     2     1    27 1   
     3     1    28 1   
     4     1    29 1   
     5     2    22 1   
     6     2    30 1   
     7     2    31 1   
     8     3     4 2   
     9     3    22 1   
    10     3    32 1   
    11     4     5 1   
    12     4     8 1   
    13     5     6 1   
    14     5     7 1   
    15     5    33 1   
    16     6     7 1   
    17     6    34 1   
    18     6    35 1   
    19     7    36 1   
    20     7    37 1   
    21     8     9 2   
    22     8    17 1   
    23     9    10 1   
    24     9    25 1   
    25    10    11 1   
    26    10    23 1   
    27    10    38 1   
    28    11    12 ar  
    29    11    15 ar  
    30    12    13 ar  
    31    12    39 1   
    32    13    14 ar  
    33    13    40 1   
    34    14    16 1   
    35    14    24 ar  
    36    15    24 ar  
    37    15    41 1   
    38    16    19 1   
    39    16    20 1   
    40    16    21 1   
    41    17    18 1   
    42    17    26 2   
    43    18    22 1   
    44    18    47 2   
    45    23    45 1   
    46    23    46 1   
    47    25    26 1   
    48    25    48 1   
    49    42    48 1   
    50    43    48 1   
    51    44    48 1   
@<TRIPOS>SUBSTRUCTURE
     1 A1A         1 TEMP              0 ****  ****    0 ROOT
