@<TRIPOS>MOLECULE
A1A
   60    63     1     0     0
SMALL
abcg2


@<TRIPOS>ATOM
      1 C15         13.7230   -46.8770   -23.3960 ca         1 A1A       0.407300
      2 C17         14.3610   -46.0990   -25.4650 ca         1 A1A       0.623900
      3 C18         14.3220   -47.3920   -26.0340 ca         1 A1A      -0.207300
      4 C19         14.6850   -47.5970   -27.4800 c6         1 A1A      -0.011100
      5 C21         15.1950   -45.1570   -27.5740 c6         1 A1A       0.235800
      6 C20         14.5040   -46.3120   -28.2790 c6         1 A1A      -0.090400
      7 C13         12.0320   -45.8200   -21.8620 c3         1 A1A      -0.071400
      8 C14         13.3810   -46.5310   -21.9750 c3         1 A1A      -0.127700
      9 C12         11.6750   -45.4740   -20.4220 c3         1 A1A      -0.080400
     10 C11         10.3350   -44.7710   -20.3320 c3         1 A1A       0.166600
     11 C23         13.9460   -48.4210   -25.1980 ca         1 A1A      -0.035000
     12 C02          5.4980   -45.7070   -15.8610 c          1 A1A       0.728000
     13 C04          5.9170   -45.4640   -17.3470 c3         1 A1A       0.062800
     14 C06          7.4790   -43.6720   -16.8020 c5         1 A1A       0.171800
     15 C07          8.8200   -43.2080   -17.3610 c5         1 A1A      -0.083400
     16 C08          8.8520   -43.7580   -18.7960 c5         1 A1A       0.165300
     17 C09          7.5800   -44.6140   -18.8810 c5         1 A1A       0.122800
     18 C24         13.6430   -48.1800   -23.8600 ca         1 A1A      -0.217000
     19 C25          5.7930   -46.7980   -18.0400 ca         1 A1A      -0.022300
     20 C26          6.7980   -47.7590   -17.9220 ca         1 A1A      -0.095500
     21 C27          6.6610   -49.0040   -18.5170 ca         1 A1A      -0.131000
     22 C28          5.5120   -49.3170   -19.2360 ca         1 A1A      -0.144000
     23 C29          4.5070   -48.3680   -19.3580 ca         1 A1A      -0.131000
     24 C30          4.6490   -47.1200   -18.7640 ca         1 A1A      -0.095500
     25 N05          7.2490   -44.9240   -17.5010 n3         1 A1A      -0.669600
     26 N16         14.0720   -45.8630   -24.1880 nb         1 A1A      -0.757000
     27 N22         14.6770   -45.0220   -26.2330 nu         1 A1A      -0.943100
     28 O10         10.0450   -44.4860   -18.9850 os         1 A1A      -0.449000
     29 H192        14.0820   -48.4020   -27.9050 hc         1 A1A       0.044200
     30 H191        15.7270   -47.9230   -27.5570 hc         1 A1A       0.044200
     31 H211        16.2800   -45.3250   -27.5730 h1         1 A1A       0.033200
     32 H212        15.0180   -44.2220   -28.1060 h1         1 A1A       0.033200
     33 H201        14.9160   -46.4260   -29.2820 hc         1 A1A       0.050700
     34 H202        13.4400   -46.0850   -28.3920 hc         1 A1A       0.050700
     35 H131        11.2530   -46.4580   -22.2910 hc         1 A1A       0.045700
     36 H132        12.0540   -44.9090   -22.4670 hc         1 A1A       0.045700
     37 H142        14.1620   -45.8870   -21.5600 hc         1 A1A       0.053200
     38 H141        13.3640   -47.4410   -21.3690 hc         1 A1A       0.053200
     39 H122        12.4530   -44.8360   -19.9920 hc         1 A1A       0.050200
     40 H121        11.6480   -46.3890   -19.8220 hc         1 A1A       0.050200
     41 H111         9.5590   -45.4060   -20.7820 h1         1 A1A       0.014200
     42 H112        10.3600   -43.8430   -20.9230 h1         1 A1A       0.014200
     43 H231        13.8910   -49.4300   -25.5930 ha         1 A1A       0.108000
     44 H041         5.1740   -44.7770   -17.7910 h1         1 A1A       0.016700
     45 H061         6.6940   -42.9300   -17.0310 h1         1 A1A       0.045200
     46 H062         7.4960   -43.8120   -15.7230 h1         1 A1A       0.045200
     47 H072         8.9360   -42.1250   -17.3220 hc         1 A1A       0.047200
     48 H071         9.6410   -43.6480   -16.7920 hc         1 A1A       0.047200
     49 H081         8.8000   -42.9470   -19.5340 h1         1 A1A       0.014700
     50 H092         6.7810   -44.0190   -19.3590 h1         1 A1A       0.029700
     51 H091         7.7090   -45.5160   -19.4820 h1         1 A1A       0.029700
     52 H241        13.3530   -48.9850   -23.1980 ha         1 A1A       0.125000
     53 H261         7.6960   -47.5190   -17.3690 ha         1 A1A       0.124500
     54 H271         7.4530   -49.7360   -18.4180 ha         1 A1A       0.088500
     55 H281         5.4060   -50.2890   -19.6990 ha         1 A1A       0.085000
     56 H291         3.6100   -48.5970   -19.9210 ha         1 A1A       0.088500
     57 H301         3.8630   -46.3820   -18.8730 ha         1 A1A       0.124500
     58 H221        14.8380   -44.1580   -25.7420 hn         1 A1A       0.496000
     59 O01          6.3820   -46.0750   -15.0690 o          1 A1A      -0.709500
     60 O03          4.2840   -45.5560   -15.6300 o          1 A1A      -0.709500
@<TRIPOS>BOND
     1     1     8 1   
     2     1    18 ar  
     3     1    26 ar  
     4     2     3 ar  
     5     2    26 ar  
     6     2    27 1   
     7     3     4 1   
     8     3    11 ar  
     9     4     6 1   
    10     4    29 1   
    11     4    30 1   
    12     5     6 1   
    13     5    27 1   
    14     5    31 1   
    15     5    32 1   
    16     6    33 1   
    17     6    34 1   
    18     7     8 1   
    19     7     9 1   
    20     7    35 1   
    21     7    36 1   
    22     8    37 1   
    23     8    38 1   
    24     9    10 1   
    25     9    39 1   
    26     9    40 1   
    27    10    28 1   
    28    10    41 1   
    29    10    42 1   
    30    11    18 ar  
    31    11    43 1   
    32    12    13 1   
    33    12    59 1   
    34    12    60 1   
    35    13    19 1   
    36    13    25 1   
    37    13    44 1   
    38    14    15 1   
    39    14    25 1   
    40    14    45 1   
    41    14    46 1   
    42    15    16 1   
    43    15    47 1   
    44    15    48 1   
    45    16    17 1   
    46    16    28 1   
    47    16    49 1   
    48    17    25 1   
    49    17    50 1   
    50    17    51 1   
    51    18    52 1   
    52    19    20 ar  
    53    19    24 ar  
    54    20    21 ar  
    55    20    53 1   
    56    21    22 ar  
    57    21    54 1   
    58    22    23 ar  
    59    22    55 1   
    60    23    24 ar  
    61    23    56 1   
    62    24    57 1   
    63    27    58 1   
@<TRIPOS>SUBSTRUCTURE
     1 A1A         1 TEMP              0 ****  ****    0 ROOT
