@<TRIPOS>MOLECULE
A1A
   69    71     1     0     0
SMALL
abcg2


@<TRIPOS>ATOM
      1 C10        -32.6210   -16.1730   -31.7060 ca         1 A1A      -0.100300
      2 C13        -33.3300   -16.3570   -33.0260 c3         1 A1A       0.151300
      3 C15        -33.7960   -18.7480   -32.5830 c3         1 A1A       0.009000
      4 C20        -35.6900   -19.7800   -36.8120 ca         1 A1A      -0.113300
      5 C21        -36.7730   -19.0550   -36.3200 ca         1 A1A      -0.100000
      6 C22        -37.6930   -18.4850   -37.1890 ca         1 A1A      -0.112000
      7 C24        -36.4730   -19.3620   -39.0600 ca         1 A1A      -0.112000
      8 C26        -35.6450   -17.2980   -33.0170 c          1 A1A       0.615700
      9 C28        -36.2180   -16.0830   -33.6410 ca         1 A1A      -0.219600
     10 C01        -26.4440   -15.8040   -27.8870 c3         1 A1A      -0.131100
     11 C02        -27.4440   -15.2420   -26.8850 c3         1 A1A       0.133800
     12 C05        -30.6350   -15.6440   -27.9300 c          1 A1A       0.632700
     13 C07        -31.2900   -15.8370   -29.2620 ca         1 A1A      -0.146600
     14 C08        -32.6810   -15.9150   -29.3090 ca         1 A1A      -0.073500
     15 C09        -33.3370   -16.0900   -30.5140 ca         1 A1A      -0.107000
     16 C11        -31.2370   -16.0710   -31.6620 ca         1 A1A      -0.107000
     17 C12        -30.5740   -15.9030   -30.4540 ca         1 A1A      -0.073500
     18 C16        -34.2030   -19.8730   -33.5270 c          1 A1A       0.603100
     19 C19        -34.6920   -20.4190   -35.8790 c3         1 A1A       0.146300
     20 C23        -37.5470   -18.6380   -38.5620 ca         1 A1A      -0.110000
     21 C25        -35.5480   -19.9230   -38.1880 ca         1 A1A      -0.100000
     22 C29        -35.7850   -15.6050   -34.8770 ca         1 A1A      -0.021000
     23 C30        -36.4220   -14.5560   -35.5100 ca         1 A1A      -0.207500
     24 C31        -37.5290   -13.9150   -34.9160 ca         1 A1A       0.365000
     25 C32        -37.9630   -14.4060   -33.6660 ca         1 A1A      -0.207500
     26 C33        -37.3310   -15.4740   -33.0630 ca         1 A1A      -0.021000
     27 C35        -39.3210   -12.2760   -34.9120 c3         1 A1A       0.219100
     28 C36        -37.7140   -12.4180   -36.8200 c3         1 A1A       0.219100
     29 N03        -28.6520   -16.0310   -26.6780 n7         1 A1A      -0.586400
     30 N04        -29.4070   -16.1920   -27.8230 ns         1 A1A      -0.402300
     31 N14        -34.2900   -17.4480   -32.9850 n          1 A1A      -0.424800
     32 N18        -34.3000   -19.5220   -34.8190 ns         1 A1A      -0.503900
     33 N34        -38.1580   -12.8740   -35.5240 nh         1 A1A      -0.827400
     34 O06        -31.1970   -15.0450   -27.0300 o          1 A1A      -0.561100
     35 O17        -34.3610   -21.0100   -33.1120 o          1 A1A      -0.594100
     36 O27        -36.3750   -18.1860   -32.5930 o          1 A1A      -0.578100
     37 H12        -33.8500   -15.4360   -33.2840 h1         1 A1A       0.062700
     38 H13        -32.5980   -16.5390   -33.8160 h1         1 A1A       0.062700
     39 H14        -34.1140   -19.0200   -31.5760 h1         1 A1A       0.076700
     40 H15        -32.7040   -18.7100   -32.5720 h1         1 A1A       0.076700
     41 H19        -36.9020   -18.9310   -35.2510 ha         1 A1A       0.121000
     42 H20        -38.5270   -17.9210   -36.7920 ha         1 A1A       0.113500
     43 H22        -36.3480   -19.4840   -40.1290 ha         1 A1A       0.113500
     44 H1         -25.5630   -15.1630   -27.9400 hc         1 A1A       0.037033
     45 H3         -26.1110   -16.8020   -27.5950 hc         1 A1A       0.037033
     46 H2         -26.8600   -15.8650   -28.8940 hc         1 A1A       0.037033
     47 H5         -26.9710   -15.1510   -25.9050 h1         1 A1A       0.066200
     48 H4         -27.7490   -14.2360   -27.1800 h1         1 A1A       0.066200
     49 H8         -33.2540   -15.8490   -28.3940 ha         1 A1A       0.125500
     50 H9         -34.4180   -16.1630   -30.5210 ha         1 A1A       0.119500
     51 H10        -30.6640   -16.1250   -32.5800 ha         1 A1A       0.119500
     52 H11        -29.4950   -15.8070   -30.4640 ha         1 A1A       0.125500
     53 H17        -33.8180   -20.7490   -36.4480 h1         1 A1A       0.061700
     54 H18        -35.1220   -21.3110   -35.4230 h1         1 A1A       0.061700
     55 H21        -38.2650   -18.1920   -39.2390 ha         1 A1A       0.110000
     56 H23        -34.7040   -20.4760   -38.5850 ha         1 A1A       0.121000
     57 H24        -34.9480   -16.0750   -35.3810 ha         1 A1A       0.116500
     58 H25        -36.0550   -14.2450   -36.4780 ha         1 A1A       0.117000
     59 H26        -38.8090   -13.9620   -33.1620 ha         1 A1A       0.117000
     60 H27        -37.7090   -15.8310   -32.1130 ha         1 A1A       0.116500
     61 H29        -39.6870   -11.4720   -35.5450 h1         1 A1A       0.038867
     62 H30        -40.1360   -12.9940   -34.7830 h1         1 A1A       0.038867
     63 H28        -39.0940   -11.8470   -33.9330 h1         1 A1A       0.038867
     64 H32        -38.3110   -11.5640   -37.1260 h1         1 A1A       0.038867
     65 H31        -36.6690   -12.0980   -36.8030 h1         1 A1A       0.038867
     66 H33        -37.8180   -13.1880   -37.5900 h1         1 A1A       0.038867
     67 H6         -28.4230   -16.9470   -26.3090 hn         1 A1A       0.414000
     68 H7         -29.0440   -16.7580   -28.5780 hn         1 A1A       0.302500
     69 H16        -34.0960   -18.5680   -35.0740 hn         1 A1A       0.315500
@<TRIPOS>BOND
     1     1     2 1   
     2     1    15 ar  
     3     1    16 ar  
     4     2    31 1   
     5     2    37 1   
     6     2    38 1   
     7     3    18 1   
     8     3    31 1   
     9     3    39 1   
    10     3    40 1   
    11     4     5 ar  
    12     4    19 1   
    13     4    21 ar  
    14     5     6 ar  
    15     5    41 1   
    16     6    20 ar  
    17     6    42 1   
    18     7    20 ar  
    19     7    21 ar  
    20     7    43 1   
    21     8     9 1   
    22     8    31 1   
    23     8    36 2   
    24     9    22 ar  
    25     9    26 ar  
    26    10    11 1   
    27    10    44 1   
    28    10    45 1   
    29    10    46 1   
    30    11    29 1   
    31    11    47 1   
    32    11    48 1   
    33    12    13 1   
    34    12    30 1   
    35    12    34 2   
    36    13    14 ar  
    37    13    17 ar  
    38    14    15 ar  
    39    14    49 1   
    40    15    50 1   
    41    16    17 ar  
    42    16    51 1   
    43    17    52 1   
    44    18    32 1   
    45    18    35 2   
    46    19    32 1   
    47    19    53 1   
    48    19    54 1   
    49    20    55 1   
    50    21    56 1   
    51    22    23 ar  
    52    22    57 1   
    53    23    24 ar  
    54    23    58 1   
    55    24    25 ar  
    56    24    33 1   
    57    25    26 ar  
    58    25    59 1   
    59    26    60 1   
    60    27    33 1   
    61    27    61 1   
    62    27    62 1   
    63    27    63 1   
    64    28    33 1   
    65    28    64 1   
    66    28    65 1   
    67    28    66 1   
    68    29    30 1   
    69    29    67 1   
    70    30    68 1   
    71    32    69 1   
@<TRIPOS>SUBSTRUCTURE
     1 A1A         1 TEMP              0 ****  ****    0 ROOT
