@<TRIPOS>MOLECULE
A1A
   36    38     1     0     0
SMALL
abcg2


@<TRIPOS>ATOM
      1 N2         -45.3340   -28.8730     7.3870 nc         1 A1A      -0.416300
      2 C3         -45.1570   -29.7900     1.2420 c3         1 A1A       0.176000
      3 C6         -48.4120   -28.7010     4.7640 cc         1 A1A      -0.119000
      4 C9         -46.4600   -28.7770     6.6900 cd         1 A1A      -0.067000
      5 C12        -44.2820   -27.4020     1.3750 ca         1 A1A      -0.062000
      6 C14        -44.0810   -26.0380    -0.5610 ca         1 A1A       0.174000
      7 C10        -44.4250   -29.1750     6.4600 cc         1 A1A       0.541200
      8 C11        -44.7940   -28.4550     0.6230 ca         1 A1A      -0.123300
      9 C13        -43.9220   -26.1920     0.8010 ca         1 A1A      -0.177000
     10 C15        -44.5770   -27.0490    -1.3600 ca         1 A1A      -0.207000
     11 C16        -44.9180   -28.2360    -0.7400 ca         1 A1A       0.206000
     12 C2         -43.9770   -30.7540     1.2140 c3         1 A1A      -0.226400
     13 C5         -47.1350   -28.9910     4.3790 cd         1 A1A      -0.096600
     14 C7         -48.7390   -28.4510     6.1130 cc         1 A1A      -0.088000
     15 C8         -47.7760   -28.4840     7.0790 cd         1 A1A      -0.096000
     16 F1         -43.7490   -24.8710    -1.1300 f          1 A1A      -0.191000
     17 F2         -45.3970   -29.2250    -1.5100 f          1 A1A      -0.167000
     18 N1         -45.5930   -29.6200     2.6120 ns         1 A1A      -0.448900
     19 N3         -44.8820   -29.2790     5.2260 nd         1 A1A      -0.606100
     20 N4         -46.1890   -29.0240     5.3670 na         1 A1A       0.306400
     21 O1         -45.4690   -32.5960     1.4490 o          1 A1A      -0.724000
     22 O2         -47.7210   -29.0580     2.1060 o          1 A1A      -0.614100
     23 O3         -43.4020   -32.7990     2.2700 o          1 A1A      -0.724000
     24 H1         -45.9780   -30.2380     0.6830 h1         1 A1A       0.114700
     25 H5         -49.1800   -28.6620     4.0060 ha         1 A1A       0.159000
     26 H9         -44.1650   -27.5200     2.4450 ha         1 A1A       0.123000
     27 H8         -43.3790   -29.3290     6.6760 h5         1 A1A       0.072800
     28 H10        -43.5300   -25.3850     1.4050 ha         1 A1A       0.122000
     29 H11        -44.7000   -26.9220    -2.4280 ha         1 A1A       0.137000
     30 H3         -43.6170   -30.8250     0.1820 hc         1 A1A       0.033700
     31 H2         -43.1450   -30.3400     1.7930 hc         1 A1A       0.033700
     32 H6         -49.7640   -28.2270     6.3730 ha         1 A1A       0.121000
     33 H7         -47.9900   -28.2930     8.1210 ha         1 A1A       0.138000
     34 H4         -44.9060   -29.6910     3.3560 hn         1 A1A       0.356500
     35 C4         -46.8300   -29.2280     2.9240 c          1 A1A       0.616700
     36 C1         -44.3210   -32.1810     1.7000 c          1 A1A       0.721000
@<TRIPOS>BOND
     1     1     4 2   
     2     1     7 1   
     3     2     8 1   
     4     2    12 1   
     5     2    18 1   
     6     2    24 1   
     7     3    13 2   
     8     3    14 1   
     9     3    25 1   
    10     4    15 1   
    11     4    20 1   
    12     5     8 ar  
    13     5     9 ar  
    14     5    26 1   
    15     6     9 ar  
    16     6    10 ar  
    17     6    16 1   
    18     7    19 2   
    19     7    27 1   
    20     8    11 ar  
    21     9    28 1   
    22    10    11 ar  
    23    10    29 1   
    24    11    17 1   
    25    12    30 1   
    26    12    31 1   
    27    12    36 1   
    28    13    20 1   
    29    13    35 1   
    30    14    15 2   
    31    14    32 1   
    32    15    33 1   
    33    18    34 1   
    34    18    35 1   
    35    19    20 1   
    36    21    36 1   
    37    22    35 2   
    38    23    36 1   
@<TRIPOS>SUBSTRUCTURE
     1 A1A         1 TEMP              0 ****  ****    0 ROOT
