@<TRIPOS>MOLECULE
A1A
   31    33     1     0     0
SMALL
abcg2


@<TRIPOS>ATOM
      1 N2          14.5060    -0.3420     4.8240 nb         1 A1A      -0.303000
      2 C3          13.2530    -1.5540     1.1110 c6         1 A1A       0.147600
      3 C6          14.6470     0.4630     3.7650 ca         1 A1A       0.436900
      4 C9          14.8670     1.8450     3.9870 ca         1 A1A      -0.247800
      5 C1          15.1710    -2.5030     2.5060 c3         1 A1A       0.156600
      6 C10         15.0110     3.0580     3.2330 cc         1 A1A      -0.207200
      7 C11         15.1780     4.0630     4.1360 cd         1 A1A      -0.179100
      8 C2          14.0460    -1.4740     2.4070 c6         1 A1A       0.206500
      9 C4          14.9960    -0.2670     0.1430 c6         1 A1A       0.146600
     10 C5          14.7220     0.6490     1.3210 c6         1 A1A       0.191800
     11 C7          14.6000     0.1570     6.0500 ca         1 A1A       0.180900
     12 C8          14.9480     2.2140     5.3440 ca         1 A1A       0.143500
     13 N1          14.5620    -0.1150     2.5450 nh         1 A1A      -0.782300
     14 N3          14.8260     1.4050     6.3990 nb         1 A1A      -0.231000
     15 N4          15.1430     3.5500     5.4060 na         1 A1A      -0.316400
     16 O1          14.5890    -3.7850     2.4830 oh         1 A1A      -0.663000
     17 O2          14.0310    -1.2840    -0.0340 os         1 A1A      -0.451000
     18 H5          12.4020    -0.8620     1.1790 h1         1 A1A       0.060700
     19 H6          12.8400    -2.5560     0.9960 h1         1 A1A       0.060700
     20 H3          15.8850    -2.3670     1.6860 h1         1 A1A       0.033200
     21 H4          15.7190    -2.3230     3.4380 h1         1 A1A       0.033200
     22 H12         14.9860     3.1970     2.1670 ha         1 A1A       0.201000
     23 H13         15.3180     5.1190     3.9730 h4         1 A1A       0.217000
     24 H1          13.3470    -1.6610     3.2260 h1         1 A1A       0.097700
     25 H7          15.9910    -0.7120     0.2630 h1         1 A1A       0.049700
     26 H8          15.0250     0.3440    -0.7620 h1         1 A1A       0.049700
     27 H10         15.5850     1.3090     1.4050 h1         1 A1A       0.056200
     28 H9          13.8450     1.2760     1.1260 h1         1 A1A       0.056200
     29 H11         14.4760    -0.5580     6.8580 h5         1 A1A       0.045100
     30 H14         15.2320     4.0810     6.2570 hn         1 A1A       0.363000
     31 H2          15.2950    -4.4370     2.4480 ho         1 A1A       0.448000
@<TRIPOS>BOND
     1     1     3 ar  
     2     1    11 ar  
     3     2     8 1   
     4     2    17 1   
     5     2    18 1   
     6     2    19 1   
     7     3     4 ar  
     8     3    13 1   
     9     4     6 1   
    10     4    12 ar  
    11     5     8 1   
    12     5    16 1   
    13     5    20 1   
    14     5    21 1   
    15     6     7 2   
    16     6    22 1   
    17     7    15 1   
    18     7    23 1   
    19     8    13 1   
    20     8    24 1   
    21     9    10 1   
    22     9    17 1   
    23     9    25 1   
    24     9    26 1   
    25    10    13 1   
    26    10    27 1   
    27    10    28 1   
    28    11    14 ar  
    29    11    29 1   
    30    12    14 ar  
    31    12    15 1   
    32    15    30 1   
    33    16    31 1   
@<TRIPOS>SUBSTRUCTURE
     1 A1A         1 TEMP              0 ****  ****    0 ROOT
