@<TRIPOS>MOLECULE
A1A
   35    37     1     0     0
SMALL
abcg2


@<TRIPOS>ATOM
      1 O1          11.0020     1.4500     3.1290 oh         1 A1A      -0.643000
      2 C1          14.0650    -1.8650    -0.6080 c3         1 A1A       0.154100
      3 C2          13.9270     0.4050     0.1900 c6         1 A1A       0.149800
      4 C3          14.2160     1.2290     1.4410 c6         1 A1A       0.230800
      5 C4          14.0820     0.9000     3.8580 ca         1 A1A       0.459900
      6 C5          14.0500     0.3900     6.1090 ca         1 A1A       0.183900
      7 C6          15.3790     2.0350     5.5010 ca         1 A1A       0.145500
      8 C7          15.0210     1.9250     4.1440 ca         1 A1A      -0.248800
      9 C8          15.7250     2.9740     3.4600 cc         1 A1A      -0.204200
     10 C10         12.4930    -0.2630     2.4110 c6         1 A1A       0.229500
     11 C11         11.2430     0.5480     2.0790 c3         1 A1A       0.143600
     12 C12         12.7860    -1.3260     1.3320 c6         1 A1A       0.157800
     13 C9          16.4580     3.6340     4.3980 cd         1 A1A      -0.187100
     14 N1          13.6410     0.6030     2.6160 nh         1 A1A      -0.754300
     15 N2          13.6140     0.1680     4.8760 nb         1 A1A      -0.303000
     16 N3          14.9270     1.2860     6.5100 nb         1 A1A      -0.240000
     17 N4          16.2500     3.0620     5.6260 na         1 A1A      -0.319400
     18 N5          13.9500    -0.9950     0.5380 n3         1 A1A      -0.705600
     19 H15         10.2680     2.0170     2.8770 ho         1 A1A       0.441000
     20 H2          14.1190    -2.9040    -0.2800 h1         1 A1A       0.032700
     21 H3          13.2160    -1.7790    -1.3040 h1         1 A1A       0.032700
     22 H4          14.9780    -1.6410    -1.1610 h1         1 A1A       0.032700
     23 H5          14.7100     0.6170    -0.5400 h1         1 A1A       0.035700
     24 H6          12.9770     0.7030    -0.2840 h1         1 A1A       0.035700
     25 H7          15.2980     1.2680     1.5700 h1         1 A1A       0.050700
     26 H8          13.8600     2.2560     1.3040 h1         1 A1A       0.050700
     27 H9          13.6280    -0.2510     6.8770 h5         1 A1A       0.040100
     28 H10         15.7010     3.2310     2.4150 ha         1 A1A       0.199000
     29 H1          12.3070    -0.7730     3.3520 h1         1 A1A       0.113700
     30 H14         11.3610     1.0660     1.1180 h1         1 A1A       0.017200
     31 H13         10.4140    -0.1620     1.9500 h1         1 A1A       0.017200
     32 H17         11.8890    -1.4370     0.6970 h1         1 A1A       0.039200
     33 H16         12.9510    -2.2980     1.8030 h1         1 A1A       0.039200
     34 H11         17.1190     4.4770     4.2880 h4         1 A1A       0.213000
     35 H12         16.6650     3.3630     6.4930 hn         1 A1A       0.360000
@<TRIPOS>BOND
     1     1    11 1   
     2     1    19 1   
     3     2    18 1   
     4     2    20 1   
     5     2    21 1   
     6     2    22 1   
     7     3     4 1   
     8     3    18 1   
     9     3    23 1   
    10     3    24 1   
    11     4    14 1   
    12     4    25 1   
    13     4    26 1   
    14     5     8 ar  
    15     5    14 1   
    16     5    15 ar  
    17     6    15 ar  
    18     6    16 ar  
    19     6    27 1   
    20     7     8 ar  
    21     7    16 ar  
    22     7    17 1   
    23     8     9 1   
    24     9    13 2   
    25     9    28 1   
    26    10    11 1   
    27    10    12 1   
    28    10    14 1   
    29    10    29 1   
    30    11    30 1   
    31    11    31 1   
    32    12    18 1   
    33    12    32 1   
    34    12    33 1   
    35    13    17 1   
    36    13    34 1   
    37    17    35 1   
@<TRIPOS>SUBSTRUCTURE
     1 A1A         1 TEMP              0 ****  ****    0 ROOT
