@<TRIPOS>MOLECULE
A1A
   46    49     1     0     0
SMALL
abcg2


@<TRIPOS>ATOM
      1 N1         -16.0120  -101.9250    -3.8610 na         1 A1A      -0.196400
      2 N3         -13.3310  -104.5020    -2.3550 nb         1 A1A      -0.298000
      3 C4         -21.7750  -100.1170    -6.2450 ca         1 A1A      -0.096000
      4 C5         -20.5490   -99.4560    -6.2690 ca         1 A1A      -0.099300
      5 C6         -20.5320   -98.1000    -6.5600 ca         1 A1A      -0.081000
      6 C7         -19.2620  -100.2180    -6.0130 c3         1 A1A       0.213600
      7 C8         -19.2850  -100.9580    -4.6710 c5         1 A1A       0.171300
      8 C10        -17.6770  -100.2470    -3.0700 c5         1 A1A       0.093300
      9 C13        -13.9500  -102.7790    -3.8570 ca         1 A1A      -0.258800
     10 C15        -15.2800  -101.2780    -4.8360 cc         1 A1A      -0.169100
     11 C17        -12.9900  -103.6740    -3.3460 ca         1 A1A       0.427900
     12 C1         -21.7140   -97.4120    -6.7890 ca         1 A1A       0.115000
     13 C2         -22.9340   -98.0730    -6.7350 ca         1 A1A       0.120000
     14 C3         -22.9570   -99.4340    -6.4680 ca         1 A1A      -0.095000
     15 CL1        -21.6480   -95.7250    -7.1380 cl         1 A1A      -0.172000
     16 CL2        -24.4130   -97.2310    -7.0000 cl         1 A1A      -0.168000
     17 O1         -18.1370   -99.3830    -6.0970 oh         1 A1A      -0.722000
     18 C9         -19.1770  -100.1460    -3.3600 c5         1 A1A       0.177000
     19 C11        -17.3850  -101.6750    -3.5270 c5         1 A1A       0.281300
     20 O2         -18.1870  -101.8670    -4.6620 os         1 A1A      -0.458000
     21 O3         -17.4110  -100.0180    -1.7190 oh         1 A1A      -0.709000
     22 C12        -15.2100  -102.8470    -3.2590 ca         1 A1A       0.159500
     23 C14        -14.0120  -101.7710    -4.8660 cd         1 A1A      -0.209200
     24 N2         -15.5620  -103.6680    -2.2690 nb         1 A1A      -0.228000
     25 C16        -14.5750  -104.4520    -1.8830 ca         1 A1A       0.179900
     26 N4         -11.7260  -103.7110    -3.7960 nv         1 A1A      -1.067900
     27 O4         -19.8940  -100.9150    -2.4110 oh         1 A1A      -0.722000
     28 H2         -19.5960   -97.5610    -6.6010 ha         1 A1A       0.143000
     29 H3         -19.2080  -101.0070    -6.7750 h1         1 A1A       0.060700
     30 H4         -20.2130  -101.5370    -4.6320 h1         1 A1A       0.088700
     31 H5         -17.1440   -99.5380    -3.7160 h1         1 A1A       0.066700
     32 H6         -15.7320  -100.5140    -5.4460 h4         1 A1A       0.219000
     33 H7         -23.9020   -99.9590    -6.4370 ha         1 A1A       0.135000
     34 H8         -17.6430   -99.5910    -6.8950 ho         1 A1A       0.515000
     35 H9         -17.6390  -102.3790    -2.7280 h2         1 A1A       0.118700
     36 H10        -16.4630   -99.9150    -1.5960 ho         1 A1A       0.524000
     37 H11        -13.2270  -101.4520    -5.5320 ha         1 A1A       0.201000
     38 H12        -14.7980  -105.1460    -1.0790 h5         1 A1A       0.046100
     39 H13        -11.1260  -104.4610    -3.4960 hn         1 A1A       0.492500
     40 H14        -11.4700  -103.2370    -4.6440 hn         1 A1A       0.492500
     41 H18        -19.7110  -100.5620    -1.5330 ho         1 A1A       0.527000
     42 C18        -19.6800   -98.7130    -3.3640 c3         1 A1A      -0.108100
     43 H1         -21.8260  -101.1810    -6.0550 ha         1 A1A       0.125000
     44 H15        -19.5290   -98.2810    -2.3720 hc         1 A1A       0.053700
     45 H16        -19.1450   -98.0880    -4.0750 hc         1 A1A       0.053700
     46 H17        -20.7440   -98.6610    -3.5900 hc         1 A1A       0.053700
@<TRIPOS>BOND
     1     1    10 1   
     2     1    19 1   
     3     1    22 1   
     4     2    11 ar  
     5     2    25 ar  
     6     3     4 ar  
     7     3    14 ar  
     8     3    43 1   
     9     4     5 ar  
    10     4     6 1   
    11     5    12 ar  
    12     5    28 1   
    13     6     7 1   
    14     6    17 1   
    15     6    29 1   
    16     7    18 1   
    17     7    20 1   
    18     7    30 1   
    19     8    18 1   
    20     8    19 1   
    21     8    21 1   
    22     8    31 1   
    23     9    11 ar  
    24     9    22 ar  
    25     9    23 1   
    26    10    23 2   
    27    10    32 1   
    28    11    26 1   
    29    12    13 ar  
    30    12    15 1   
    31    13    14 ar  
    32    13    16 1   
    33    14    33 1   
    34    17    34 1   
    35    18    27 1   
    36    18    42 1   
    37    19    20 1   
    38    19    35 1   
    39    21    36 1   
    40    22    24 ar  
    41    23    37 1   
    42    24    25 ar  
    43    25    38 1   
    44    26    39 1   
    45    26    40 1   
    46    27    41 1   
    47    42    44 1   
    48    42    45 1   
    49    42    46 1   
@<TRIPOS>SUBSTRUCTURE
     1 A1A         1 TEMP              0 ****  ****    0 ROOT
