@<TRIPOS>MOLECULE
A1A
   30    32     1     0     0
SMALL
abcg2


@<TRIPOS>ATOM
      1 N2          14.6380    -0.0600     4.7920 nb         1 A1A      -0.333000
      2 C3          15.1910    -1.7620     0.0040 c5         1 A1A      -0.081400
      3 C6          14.7190     0.9110     3.8740 ca         1 A1A       0.439900
      4 C9          14.8570     2.2460     4.3110 ca         1 A1A      -0.262800
      5 C1          15.3530    -1.8330     2.3750 c5         1 A1A       0.172300
      6 C10         14.9680     3.5350     3.7100 cc         1 A1A      -0.206200
      7 C11         15.0680     4.4240     4.7400 cd         1 A1A      -0.179100
      8 C2          15.2820    -2.7480     1.1610 c5         1 A1A      -0.083400
      9 C4          14.2150    -0.6940     0.5150 c5         1 A1A      -0.088400
     10 C5          14.3240    -0.7210     2.0560 c5         1 A1A       0.192500
     11 C7          14.6850     0.2650     6.0880 ca         1 A1A       0.186900
     12 C8          14.8940     2.4260     5.6970 ca         1 A1A       0.148500
     13 N1          14.6760     0.5900     2.5740 nu         1 A1A      -0.917100
     14 N3          14.8090     1.4590     6.6190 nb         1 A1A      -0.227000
     15 N4          15.0220     3.7510     5.9350 na         1 A1A      -0.312400
     16 H7          14.8590    -2.2210    -0.9270 hc         1 A1A       0.047200
     17 H6          16.1720    -1.3200    -0.1870 hc         1 A1A       0.047200
     18 H1          16.3480    -1.3580     2.3860 h1         1 A1A       0.035700
     19 H12         14.9760     3.7800     2.6600 ha         1 A1A       0.202000
     20 H13         15.1700     5.4970     4.7190 h4         1 A1A       0.218000
     21 H5          14.3740    -3.3560     1.2150 hc         1 A1A       0.058200
     22 H4          16.1350    -3.4250     1.0920 hc         1 A1A       0.058200
     23 H9          14.4310     0.2910     0.0980 hc         1 A1A       0.047200
     24 H8          13.1950    -0.9390     0.2180 hc         1 A1A       0.047200
     25 H2          13.3630    -1.0240     2.4890 h1         1 A1A       0.067700
     26 H11         14.6130    -0.5700     6.7780 h5         1 A1A       0.046100
     27 H10         14.6870     1.3550     1.9190 hn         1 A1A       0.497000
     28 H14         15.0730     4.1760     6.8470 hn         1 A1A       0.363000
     29 O1          15.1030    -2.5270     3.5640 oh         1 A1A      -0.672000
     30 H3          14.9190    -1.8340     4.2270 ho         1 A1A       0.488000
@<TRIPOS>BOND
     1     1     3 ar  
     2     1    11 ar  
     3     2     8 1   
     4     2     9 1   
     5     2    16 1   
     6     2    17 1   
     7     3     4 ar  
     8     3    13 1   
     9     4     6 1   
    10     4    12 ar  
    11     5     8 1   
    12     5    10 1   
    13     5    18 1   
    14     5    29 1   
    15     6     7 2   
    16     6    19 1   
    17     7    15 1   
    18     7    20 1   
    19     8    21 1   
    20     8    22 1   
    21     9    10 1   
    22     9    23 1   
    23     9    24 1   
    24    10    13 1   
    25    10    25 1   
    26    11    14 ar  
    27    11    26 1   
    28    12    14 ar  
    29    12    15 1   
    30    13    27 1   
    31    15    28 1   
    32    29    30 1   
@<TRIPOS>SUBSTRUCTURE
     1 A1A         1 TEMP              0 ****  ****    0 ROOT
