@<TRIPOS>MOLECULE
A1A
   36    38     1     0     0
SMALL
abcg2


@<TRIPOS>ATOM
      1 N2          13.8420     0.0840     3.2170 nb         1 A1A      -0.292000
      2 C3          14.4500    -0.0150    -0.4970 c3         1 A1A      -0.045100
      3 C6          10.7510     0.2920     0.2920 ca         1 A1A      -0.148500
      4 C9          12.9780     1.9420     0.1240 ca         1 A1A      -0.075000
      5 C12         14.2860     2.3080     4.6110 ca         1 A1A       0.147500
      6 C14         15.9590     3.1990     3.3490 cc         1 A1A      -0.211200
      7 C1          16.4780    -1.2380     0.4410 c3         1 A1A       0.151600
      8 C10         14.7890     0.9040     2.7620 ca         1 A1A       0.439900
      9 C11         13.1770     0.4230     4.3220 ca         1 A1A       0.180900
     10 C13         15.0660     2.0930     3.4710 ca         1 A1A      -0.262800
     11 C15         15.6870     4.0220     4.4030 cd         1 A1A      -0.178100
     12 C2          15.1730    -0.5160     0.7620 c3         1 A1A       0.232500
     13 C4          13.1150     0.5870    -0.1660 ca         1 A1A      -0.094300
     14 C5          11.9840    -0.2230    -0.0790 ca         1 A1A      -0.075000
     15 C7          10.6600     1.6400     0.5820 ca         1 A1A       0.170000
     16 C8          11.7540     2.4790     0.5010 ca         1 A1A      -0.148500
     17 F1           9.4680     2.1450     0.9470 f          1 A1A      -0.182000
     18 N1          15.4760     0.5830     1.6510 nu         1 A1A      -0.927100
     19 N3          13.3270     1.4960     5.0690 nb         1 A1A      -0.228000
     20 N4          14.6770     3.4830     5.1590 na         1 A1A      -0.316400
     21 H5          14.3160    -0.8500    -1.1870 hc         1 A1A       0.058200
     22 H6          15.0880     0.7160    -1.0020 hc         1 A1A       0.058200
     23 H8           9.8780    -0.3440     0.3550 ha         1 A1A       0.130000
     24 H10         13.8410     2.5930     0.0600 ha         1 A1A       0.114000
     25 H13         16.7080     3.3700     2.5920 ha         1 A1A       0.200000
     26 H3          16.9490    -1.5310     1.3880 h1         1 A1A       0.024700
     27 H4          17.1620    -0.5360    -0.0570 h1         1 A1A       0.024700
     28 H12         12.4150    -0.2820     4.6400 h5         1 A1A       0.045100
     29 H14         16.1370     4.9610     4.6810 h4         1 A1A       0.216000
     30 H1          14.5170    -1.2000     1.3020 h1         1 A1A       0.108700
     31 H7          12.0670    -1.2800    -0.3030 ha         1 A1A       0.114000
     32 H9          11.6550     3.5340     0.7260 ha         1 A1A       0.130000
     33 H11         16.1210     1.2750     1.3020 hn         1 A1A       0.486000
     34 H15         14.2890     3.8940     5.9930 hn         1 A1A       0.362000
     35 H2          17.0260    -2.7400    -0.6530 ho         1 A1A       0.449000
     36 O1          16.1940    -2.3520    -0.3690 oh         1 A1A      -0.658000
@<TRIPOS>BOND
     1     1     8 ar  
     2     1     9 ar  
     3     2    12 1   
     4     2    13 1   
     5     2    21 1   
     6     2    22 1   
     7     3    14 ar  
     8     3    15 ar  
     9     3    23 1   
    10     4    13 ar  
    11     4    16 ar  
    12     4    24 1   
    13     5    10 ar  
    14     5    19 ar  
    15     5    20 1   
    16     6    10 1   
    17     6    11 2   
    18     6    25 1   
    19     7    12 1   
    20     7    26 1   
    21     7    27 1   
    22     7    36 1   
    23     8    10 ar  
    24     8    18 1   
    25     9    19 ar  
    26     9    28 1   
    27    11    20 1   
    28    11    29 1   
    29    12    18 1   
    30    12    30 1   
    31    13    14 ar  
    32    14    31 1   
    33    15    16 ar  
    34    15    17 1   
    35    16    32 1   
    36    18    33 1   
    37    20    34 1   
    38    35    36 1   
@<TRIPOS>SUBSTRUCTURE
     1 A1A         1 TEMP              0 ****  ****    0 ROOT
