@<TRIPOS>MOLECULE
A1A
   32    34     1     0     0
SMALL
abcg2


@<TRIPOS>ATOM
      1 N2          15.1370     0.8550     1.6770 nu         1 A1A      -0.935100
      2 C3          14.1420     0.0730    -0.3910 c3         1 A1A      -0.121700
      3 C6          10.8640     2.0250     0.4150 cc         1 A1A      -0.275000
      4 C9          15.2730     2.1390     5.0680 ca         1 A1A       0.145500
      5 C12         16.1450     4.1010     4.4920 cc         1 A1A      -0.176100
      6 C1          16.0710    -1.1640     0.6970 c3         1 A1A       0.144600
      7 C10         15.4520     2.1430     3.6800 ca         1 A1A      -0.257800
      8 C11         16.0090     3.4070     3.3250 cd         1 A1A      -0.208200
      9 C2          14.8110    -0.3340     0.9220 c3         1 A1A       0.230500
     10 C4          12.7990     0.6990    -0.2160 cc         1 A1A       0.433700
     11 C5          10.6700     1.1290    -0.5830 cd         1 A1A       0.273900
     12 C7          15.0490     0.9670     3.0190 ca         1 A1A       0.431900
     13 C8          14.4320     0.0990     5.0480 ca         1 A1A       0.177900
     14 N1          11.7640     0.3880    -0.9310 nd         1 A1A      -0.644000
     15 N3          14.5450    -0.0420     3.7270 nb         1 A1A      -0.291000
     16 N4          14.7650     1.1340     5.7890 nb         1 A1A      -0.225000
     17 N5          15.7000     3.3340     5.5390 na         1 A1A      -0.315400
     18 S1          12.4890     1.9430     0.9530 ss         1 A1A      -0.019400
     19 H9          15.6490     1.5740     1.1890 hn         1 A1A       0.490000
     20 H5          14.0110    -0.8010    -1.0280 hc         1 A1A       0.077200
     21 H6          14.8050     0.7590    -0.9310 hc         1 A1A       0.077200
     22 H8          10.1490     2.7030     0.8560 h4         1 A1A       0.159000
     23 H12         16.5260     5.0940     4.6650 h4         1 A1A       0.217000
     24 H4          16.5210    -1.3690     1.6770 h1         1 A1A       0.025700
     25 H3          16.7940    -0.5650     0.1270 h1         1 A1A       0.025700
     26 H11         16.2780     3.7640     2.3440 ha         1 A1A       0.202000
     27 H1          14.1080    -0.9200     1.5180 h1         1 A1A       0.112700
     28 H7           9.7320     0.9700    -1.0970 h4         1 A1A       0.040100
     29 H10         14.0130    -0.7550     5.5720 h5         1 A1A       0.046100
     30 H13         15.6890     3.6150     6.5060 hn         1 A1A       0.363000
     31 H2          16.5250    -2.8420    -0.1590 ho         1 A1A       0.449000
     32 O1          15.7210    -2.3490     0.0250 oh         1 A1A      -0.654000
@<TRIPOS>BOND
     1     1     9 1   
     2     1    12 1   
     3     1    19 1   
     4     2     9 1   
     5     2    10 1   
     6     2    20 1   
     7     2    21 1   
     8     3    11 2   
     9     3    18 1   
    10     3    22 1   
    11     4     7 ar  
    12     4    16 ar  
    13     4    17 1   
    14     5     8 2   
    15     5    17 1   
    16     5    23 1   
    17     6     9 1   
    18     6    24 1   
    19     6    25 1   
    20     6    32 1   
    21     7     8 1   
    22     7    12 ar  
    23     8    26 1   
    24     9    27 1   
    25    10    14 2   
    26    10    18 1   
    27    11    14 1   
    28    11    28 1   
    29    12    15 ar  
    30    13    15 ar  
    31    13    16 ar  
    32    13    29 1   
    33    17    30 1   
    34    31    32 1   
@<TRIPOS>SUBSTRUCTURE
     1 A1A         1 TEMP              0 ****  ****    0 ROOT
