@<TRIPOS>MOLECULE
A1A
   33    35     1     0     0
SMALL
abcg2


@<TRIPOS>ATOM
      1 N2          14.8860    -0.0300     3.7250 nb         1 A1A      -0.308000
      2 C3          14.9900     1.8830    -0.4560 c5         1 A1A      -0.095400
      3 C6          14.9160    -0.1000     5.0510 ca         1 A1A       0.180900
      4 C9          15.5770     3.6960     3.7620 cc         1 A1A      -0.204200
      5 C10         15.7160     4.2160     5.0130 cd         1 A1A      -0.185100
      6 C11         14.6940     0.0000     0.9790 c5         1 A1A       0.243500
      7 C2          14.1400     0.6200    -0.3080 c5         1 A1A      -0.073700
      8 C4          15.1600     2.3800     0.9770 c5         1 A1A       0.225800
      9 C5          15.0830     1.1510     3.1220 ca         1 A1A       0.440900
     10 C7          15.3250     2.0490     5.3110 ca         1 A1A       0.145500
     11 C8          15.3230     2.2940     3.9260 ca         1 A1A      -0.253800
     12 N1          15.0360     1.1730     1.7800 nh         1 A1A      -0.781300
     13 N3          15.1260     0.8730     5.9120 nb         1 A1A      -0.238000
     14 N4          15.5640     3.2200     5.9430 na         1 A1A      -0.317400
     15 H6          15.9610     1.6450    -0.8920 hc         1 A1A       0.053700
     16 H7          14.5250     2.6350    -1.0940 hc         1 A1A       0.053700
     17 H10         14.7460    -1.0870     5.4700 h5         1 A1A       0.042100
     18 H11         15.6500     4.2630     2.8510 ha         1 A1A       0.201000
     19 H12         15.9150     5.2290     5.3200 h4         1 A1A       0.215000
     20 H2          13.9370    -0.5940     1.4970 h1         1 A1A       0.096700
     21 H1          14.2880    -0.0560    -1.1520 hc         1 A1A       0.077700
     22 H9          16.1270     2.8630     1.1260 h1         1 A1A       0.049200
     23 H8          14.3810     3.1020     1.2400 h1         1 A1A       0.049200
     24 H13         15.6200     3.3360     6.9420 hn         1 A1A       0.361000
     25 H16         16.2890    -2.5570    -0.1420 ho         1 A1A       0.445000
     26 C12         15.9220    -0.8760     0.7560 c3         1 A1A       0.149600
     27 C1          12.6550     0.9410    -0.1820 c3         1 A1A      -0.086100
     28 O1          15.5120    -2.0250     0.0500 oh         1 A1A      -0.663000
     29 H14         16.3540    -1.1340     1.7300 h1         1 A1A       0.031200
     30 H15         16.6840    -0.3080     0.2050 h1         1 A1A       0.031200
     31 H3          12.0680     0.0330    -0.0370 hc         1 A1A       0.037700
     32 H4          12.4510     1.6030     0.6620 hc         1 A1A       0.037700
     33 H5          12.2880     1.4350    -1.0820 hc         1 A1A       0.037700
@<TRIPOS>BOND
     1     1     3 ar  
     2     1     9 ar  
     3     2     7 1   
     4     2     8 1   
     5     2    15 1   
     6     2    16 1   
     7     3    13 ar  
     8     3    17 1   
     9     4     5 2   
    10     4    11 1   
    11     4    18 1   
    12     5    14 1   
    13     5    19 1   
    14     6     7 1   
    15     6    12 1   
    16     6    20 1   
    17     6    26 1   
    18     7    21 1   
    19     7    27 1   
    20     8    12 1   
    21     8    22 1   
    22     8    23 1   
    23     9    11 ar  
    24     9    12 1   
    25    10    11 ar  
    26    10    13 ar  
    27    10    14 1   
    28    14    24 1   
    29    25    28 1   
    30    26    28 1   
    31    26    29 1   
    32    26    30 1   
    33    27    31 1   
    34    27    32 1   
    35    27    33 1   
@<TRIPOS>SUBSTRUCTURE
     1 A1A         1 TEMP              0 ****  ****    0 ROOT
