@<TRIPOS>MOLECULE
A1A
   34    36     1     0     0
SMALL
abcg2


@<TRIPOS>ATOM
      1 N2          14.8580    -0.4810     3.7450 nb         1 A1A      -0.289000
      2 C3          15.1280     0.5650     2.9600 ca         1 A1A       0.446900
      3 C6          15.4650     1.7990     3.5570 ca         1 A1A      -0.263800
      4 C9          13.4150    -0.6950     0.1630 c5         1 A1A      -0.115700
      5 C12         12.2640    -0.2030     1.0300 c5         1 A1A       0.162600
      6 C1          15.8920    -1.1270    -0.0360 c3         1 A1A       0.146600
      7 C10         12.8660    -2.0720    -0.2260 c5         1 A1A      -0.111400
      8 C11         12.1080    -2.5070     1.0320 c5         1 A1A       0.149600
      9 C2          14.7530    -0.7940     0.9180 c3         1 A1A       0.240500
     10 C4          14.9180    -0.3240     5.0670 ca         1 A1A       0.182900
     11 C5          15.4820     1.8060     4.9550 ca         1 A1A       0.148500
     12 C7          15.8140     3.1120     3.1210 cc         1 A1A      -0.208200
     13 C8          16.0210     3.8450     4.2520 cd         1 A1A      -0.182100
     14 N1          15.0630     0.4280     1.6270 nu         1 A1A      -0.919100
     15 N3          15.2130     0.7630     5.7490 nb         1 A1A      -0.235000
     16 N4          15.8200     3.0550     5.3560 na         1 A1A      -0.318400
     17 O2          11.8390    -1.3270     1.7770 os         1 A1A      -0.446000
     18 H2          13.5380    -0.0480    -0.7110 hc         1 A1A       0.056700
     19 H16         12.5330     0.5990     1.7190 h1         1 A1A       0.049200
     20 H15         11.4570     0.1740     0.3870 h1         1 A1A       0.049200
     21 H5          16.0120    -0.2980    -0.7490 h1         1 A1A       0.018200
     22 H4          15.6200    -2.0110    -0.6260 h1         1 A1A       0.018200
     23 H11         12.1870    -1.9720    -1.0750 hc         1 A1A       0.053200
     24 H12         13.6320    -2.7930    -0.5090 hc         1 A1A       0.053200
     25 H14         11.1770    -3.0250     0.7820 h1         1 A1A       0.046200
     26 H13         12.7060    -3.1850     1.6490 h1         1 A1A       0.046200
     27 H1          14.6840    -1.5850     1.6660 h1         1 A1A       0.115700
     28 H7          14.6900    -1.2100     5.6510 h5         1 A1A       0.043100
     29 H8          15.9010     3.4750     2.1090 ha         1 A1A       0.198000
     30 H9          16.3000     4.8800     4.3640 h4         1 A1A       0.214000
     31 H6          15.2660     1.2410     1.0670 hn         1 A1A       0.488000
     32 H10         15.9110     3.3540     6.3130 hn         1 A1A       0.360000
     33 H3          17.7850    -1.5060     0.1030 ho         1 A1A       0.442000
     34 O1          17.0610    -1.3450     0.7140 oh         1 A1A      -0.645000
@<TRIPOS>BOND
     1     1     2 ar  
     2     1    10 ar  
     3     2     3 ar  
     4     2    14 1   
     5     3    11 ar  
     6     3    12 1   
     7     4     5 1   
     8     4     7 1   
     9     4     9 1   
    10     4    18 1   
    11     5    17 1   
    12     5    19 1   
    13     5    20 1   
    14     6     9 1   
    15     6    21 1   
    16     6    22 1   
    17     6    34 1   
    18     7     8 1   
    19     7    23 1   
    20     7    24 1   
    21     8    17 1   
    22     8    25 1   
    23     8    26 1   
    24     9    14 1   
    25     9    27 1   
    26    10    15 ar  
    27    10    28 1   
    28    11    15 ar  
    29    11    16 1   
    30    12    13 2   
    31    12    29 1   
    32    13    16 1   
    33    13    30 1   
    34    14    31 1   
    35    16    32 1   
    36    33    34 1   
@<TRIPOS>SUBSTRUCTURE
     1 A1A         1 TEMP              0 ****  ****    0 ROOT
