@<TRIPOS>MOLECULE
A1A
   60    65     1     0     0
SMALL
abcg2


@<TRIPOS>ATOM
      1 N1           2.4970     6.1810   -14.2340 n2         1 A1A      -0.718900
      2 N3          -0.2380     7.3960   -17.7640 nu         1 A1A      -0.935900
      3 C4           4.1530     4.4610   -14.7340 c3         1 A1A      -0.080600
      4 C5           2.9170     7.1010   -13.4670 c2         1 A1A       0.806500
      5 C6           1.9380     9.1130   -14.5020 ca         1 A1A       0.307000
      6 C7           0.5370     9.2770   -16.4600 ca         1 A1A      -0.137000
      7 C8           1.2880     8.5040   -15.5550 ca         1 A1A      -0.124000
      8 C10          0.4660    10.6760   -16.3220 ca         1 A1A       0.020000
      9 C13         -0.8810     6.6770   -18.7780 ca         1 A1A       0.315000
     10 C15         -1.0140     7.1440   -20.0860 ca         1 A1A      -0.107000
     11 C17         -1.3520     5.4030   -18.4600 ca         1 A1A      -0.158000
     12 C21         -3.9790     4.3730   -21.8980 cc         1 A1A       0.171100
     13 C22         -4.8340     5.1900   -21.2040 cd         1 A1A      -0.196000
     14 C24         -4.4590     3.5180   -22.9250 cc         1 A1A      -0.179000
     15 C26         -8.2610     5.3210   -21.8070 cc         1 A1A       0.535200
     16 O1           3.6980     6.7680   -12.4250 os         1 A1A      -0.470600
     17 N2           2.6900     8.4360   -13.5520 nu         1 A1A      -0.904200
     18 N4          -0.2200    11.4640   -17.1920 nb         1 A1A      -0.193000
     19 N5          -0.8400     9.5260   -18.4060 nb         1 A1A      -0.270000
     20 N6          -6.6160     4.3080   -22.5400 na         1 A1A       0.270400
     21 N7          -7.2490     5.8040   -21.0700 nc         1 A1A      -0.408300
     22 N8          -7.9440     4.4170   -22.7090 nd         1 A1A      -0.605100
     23 C1           3.0840     4.9290   -13.7500 c5         1 A1A       0.120200
     24 C2           3.7010     5.3350   -12.3920 c5         1 A1A       0.128600
     25 C3           2.0100     3.8640   -13.5860 c3         1 A1A      -0.080600
     26 C9           1.8500    10.5170   -14.3540 ca         1 A1A      -0.130000
     27 C11         -0.1980     8.7370   -17.5750 ca         1 A1A       0.398900
     28 C12          1.1400    11.2750   -15.2390 ca         1 A1A      -0.065000
     29 C14         -1.6240     6.3720   -21.0690 ca         1 A1A      -0.048300
     30 C16         -2.0870     5.1090   -20.7160 ca         1 A1A       0.051100
     31 C18         -1.9530     4.6200   -19.4290 ca         1 A1A      -0.082000
     32 C19         -0.8110    10.8460   -18.1720 ca         1 A1A       0.159900
     33 C23         -6.1970     5.1490   -21.5450 cd         1 A1A      -0.029000
     34 C25         -5.7790     3.4980   -23.2300 cd         1 A1A      -0.046000
     35 H2           0.0960     6.8260   -17.0030 hn         1 A1A       0.510000
     36 H3           4.6040     3.5250   -14.4000 hc         1 A1A       0.043200
     37 H4           3.7200     4.2940   -15.7210 hc         1 A1A       0.043200
     38 H5           4.9490     5.2020   -14.8340 hc         1 A1A       0.043200
     39 H6           1.3800     7.4330   -15.6610 ha         1 A1A       0.154000
     40 H7          -0.6380     8.1200   -20.3530 ha         1 A1A       0.146000
     41 H8          -1.2500     5.0220   -17.4510 ha         1 A1A       0.120000
     42 H9          -2.8040     6.9690   -22.7730 hc         1 A1A       0.051033
     43 H10         -1.3030     7.8640   -22.5740 hc         1 A1A       0.051033
     44 H11         -1.2740     6.2140   -23.1890 hc         1 A1A       0.051033
     45 H12         -4.5100     5.8530   -20.4150 ha         1 A1A       0.163000
     46 H13         -3.7760     2.8790   -23.4660 ha         1 A1A       0.149000
     47 H14         -9.2840     5.6450   -21.6820 h5         1 A1A       0.069800
     48 H15          3.0990     5.0030   -11.5420 h1         1 A1A       0.066700
     49 H16          4.7260     4.9880   -12.2530 h1         1 A1A       0.066700
     50 H17          1.2210     4.2000   -12.9120 hc         1 A1A       0.043200
     51 H18          1.5560     3.6250   -14.5490 hc         1 A1A       0.043200
     52 H19          2.4340     2.9450   -13.1790 hc         1 A1A       0.043200
     53 H20          2.3600    10.9980   -13.5270 ha         1 A1A       0.117000
     54 H21          1.0850    12.3500   -15.1220 ha         1 A1A       0.138000
     55 H22         -2.3190     3.6320   -19.1830 ha         1 A1A       0.130000
     56 H23         -1.3550    11.4560   -18.8860 h5         1 A1A       0.048100
     57 H24         -6.2170     2.8760   -23.9960 h4         1 A1A       0.164000
     58 H1           3.0980     8.9980   -12.8200 hn         1 A1A       0.515000
     59 C20         -1.7580     6.8800   -22.4740 c3         1 A1A      -0.048800
     60 O2          -2.6510     4.3030   -21.6840 os         1 A1A      -0.238200
@<TRIPOS>BOND
     1     1     4 2   
     2     1    23 1   
     3     2     9 1   
     4     2    27 1   
     5     2    35 1   
     6     3    23 1   
     7     3    36 1   
     8     3    37 1   
     9     3    38 1   
    10     4    16 1   
    11     4    17 1   
    12     5     7 ar  
    13     5    17 1   
    14     5    26 ar  
    15     6     7 ar  
    16     6     8 ar  
    17     6    27 ar  
    18     7    39 1   
    19     8    18 ar  
    20     8    28 ar  
    21     9    10 ar  
    22     9    11 ar  
    23    10    29 ar  
    24    10    40 1   
    25    11    31 ar  
    26    11    41 1   
    27    12    13 2   
    28    12    14 1   
    29    12    60 1   
    30    13    33 1   
    31    13    45 1   
    32    14    34 2   
    33    14    46 1   
    34    15    21 1   
    35    15    22 2   
    36    15    47 1   
    37    16    24 1   
    38    17    58 1   
    39    18    32 ar  
    40    19    27 ar  
    41    19    32 ar  
    42    20    22 1   
    43    20    33 1   
    44    20    34 1   
    45    21    33 2   
    46    23    24 1   
    47    23    25 1   
    48    24    48 1   
    49    24    49 1   
    50    25    50 1   
    51    25    51 1   
    52    25    52 1   
    53    26    28 ar  
    54    26    53 1   
    55    28    54 1   
    56    29    30 ar  
    57    29    59 1   
    58    30    31 ar  
    59    30    60 1   
    60    31    55 1   
    61    32    56 1   
    62    34    57 1   
    63    42    59 1   
    64    43    59 1   
    65    44    59 1   
@<TRIPOS>SUBSTRUCTURE
     1 A1A         1 TEMP              0 ****  ****    0 ROOT
