@<TRIPOS>MOLECULE
A1A
   49    53     1     0     0
SMALL
abcg2


@<TRIPOS>ATOM
      1 C1          77.3830    88.5570    98.7620 c3         1 A1A       0.222100
      2 O1          84.7190    93.2330    97.3070 oh         1 A1A      -0.647000
      3 C2          79.2420    90.1480    98.7750 ca         1 A1A       0.449900
      4 C13         82.7330    93.4910    98.6350 c5         1 A1A       0.110300
      5 C3          79.7660    91.4540    98.6580 ca         1 A1A      -0.096600
      6 C4          80.1940    93.5050    98.4230 cc         1 A1A       0.402700
      7 C5          81.1400    91.5760    98.7930 ca         1 A1A       0.119500
      8 C6          81.4020    89.4180    99.1100 ca         1 A1A       0.319000
      9 C7          82.2420    88.2840    99.3500 cg         1 A1A      -0.172000
     10 C8          82.9400    87.3190    99.5450 ch         1 A1A      -0.056000
     11 C9          83.7410    86.1890    99.7710 cd         1 A1A      -0.097000
     12 C10         85.0960    86.1300    99.9690 cc         1 A1A      -0.098000
     13 C11         85.5730    84.8140   100.1650 cc         1 A1A      -0.125000
     14 C12         84.5670    83.8990   100.1110 cd         1 A1A      -0.035000
     15 C14         82.6880    94.9540    99.0200 cx         1 A1A      -0.111700
     16 C15         83.9250    95.7460    98.8160 cx         1 A1A      -0.053400
     17 C16         82.8470    95.7800    97.7610 cx         1 A1A      -0.219000
     18 C17         83.0040    94.8310    96.5960 c5         1 A1A       0.168300
     19 C18         83.3380    93.4470    97.2170 c5         1 A1A       0.125300
     20 C19         82.0820    97.0260    97.5160 c          1 A1A       0.634100
     21 C20         81.1770    98.9650    98.4980 c3         1 A1A       0.153900
     22 N1          79.1930    92.6710    98.4270 nd         1 A1A      -0.550100
     23 N2          77.9400    89.8850    98.6640 nu         1 A1A      -0.911100
     24 N3          81.4020    92.9070    98.6480 na         1 A1A      -0.277300
     25 N4          82.0080    90.5930    99.0180 nb         1 A1A      -0.195000
     26 N5          80.0970    89.1490    99.0030 nb         1 A1A      -0.283000
     27 O2          84.0070    95.2680    95.7150 oh         1 A1A      -0.647000
     28 O3          81.6720    97.3550    96.4300 o          1 A1A      -0.478000
     29 O4          81.8940    97.7360    98.6180 os         1 A1A      -0.445100
     30 S1          83.0310    84.6090    99.8250 ss         1 A1A       0.272000
     31 CL1         84.7110    82.2120   100.2960 cl         1 A1A      -0.139000
     32 H1          76.3070    88.6310    98.6360 h1         1 A1A       0.045367
     33 H3          77.7780    87.8960    97.9900 h1         1 A1A       0.045367
     34 H2          77.5880    88.1060    99.7340 h1         1 A1A       0.045367
     35 H14         85.1320    93.7450    96.5980 ho         1 A1A       0.466000
     36 H8          83.3390    92.9050    99.3280 h1         1 A1A       0.122700
     37 H5          80.1030    94.5700    98.2680 h5         1 A1A       0.069800
     38 H6          85.7270    87.0070    99.9730 ha         1 A1A       0.146000
     39 H7          86.6090    84.5600   100.3360 ha         1 A1A       0.147000
     40 H9          82.0060    95.2600    99.8050 hc         1 A1A       0.113700
     41 H10         84.0340    96.6300    99.4270 hc         1 A1A       0.097700
     42 H11         84.8570    95.2510    98.5840 hc         1 A1A       0.097700
     43 H12         82.0390    94.7520    96.0830 h1         1 A1A       0.062700
     44 H13         82.8660    92.6470    96.6330 h1         1 A1A       0.067700
     45 H18         81.1350    99.3840    99.4990 h1         1 A1A       0.051700
     46 H16         81.6910    99.6610    97.8350 h1         1 A1A       0.051700
     47 H17         80.1640    98.8020    98.1310 h1         1 A1A       0.051700
     48 H4          77.3200    90.6570    98.4830 hn         1 A1A       0.517000
     49 H15         83.7990    94.9650    94.8250 ho         1 A1A       0.459000
@<TRIPOS>BOND
     1     1    23 1   
     2     1    32 1   
     3     1    33 1   
     4     1    34 1   
     5     2    19 1   
     6     2    35 1   
     7     3     5 ar  
     8     3    23 1   
     9     3    26 ar  
    10     4    15 1   
    11     4    19 1   
    12     4    24 1   
    13     4    36 1   
    14     5     7 ar  
    15     5    22 1   
    16     6    22 2   
    17     6    24 1   
    18     6    37 1   
    19     7    24 1   
    20     7    25 ar  
    21     8     9 1   
    22     8    25 ar  
    23     8    26 ar  
    24     9    10 3   
    25    10    11 1   
    26    11    12 2   
    27    11    30 1   
    28    12    13 1   
    29    12    38 1   
    30    13    14 2   
    31    13    39 1   
    32    14    30 1   
    33    14    31 1   
    34    15    16 1   
    35    15    17 1   
    36    15    40 1   
    37    16    17 1   
    38    16    41 1   
    39    16    42 1   
    40    17    18 1   
    41    17    20 1   
    42    18    19 1   
    43    18    27 1   
    44    18    43 1   
    45    19    44 1   
    46    20    28 2   
    47    20    29 1   
    48    21    29 1   
    49    21    45 1   
    50    21    46 1   
    51    21    47 1   
    52    23    48 1   
    53    27    49 1   
@<TRIPOS>SUBSTRUCTURE
     1 A1A         1 TEMP              0 ****  ****    0 ROOT
