@<TRIPOS>MOLECULE
A1A
   75    80     1     0     0
SMALL
abcg2


@<TRIPOS>ATOM
      1 C11         39.9770   -10.7460    14.6730 c3         1 A1A       0.029700
      2 C12         40.8100   -10.2130    13.5070 c          1 A1A       0.607100
      3 C15         40.6200   -10.2510    15.9800 c3         1 A1A      -0.010200
      4 C16         39.8900   -10.6870    17.2020 cc         1 A1A      -0.164400
      5 N18         39.4030   -11.7360    19.1200 na         1 A1A      -0.215700
      6 C19         38.3210   -10.9490    18.8440 ca         1 A1A      -0.071200
      7 C20         38.5930   -10.2690    17.6370 ca         1 A1A      -0.069800
      8 C21         37.6490    -9.3700    17.1230 ca         1 A1A      -0.103000
      9 C22         36.4880    -9.1980    17.8350 ca         1 A1A       0.141000
     10 C24         36.2100    -9.8720    19.0270 ca         1 A1A      -0.131000
     11 C27         38.5100   -16.4800    16.8770 c6         1 A1A       0.029700
     12 C30         39.7380   -20.0080    16.3140 c3         1 A1A      -0.176100
     13 C33         40.2940   -17.8720    18.0270 c6         1 A1A       0.167200
     14 C34         40.1750   -16.8750    19.1140 cc         1 A1A      -0.060300
     15 C35         39.2160   -15.9210    19.2140 cd         1 A1A      -0.135400
     16 C02         39.3440   -15.6790    15.8650 c          1 A1A       0.590100
     17 C04         39.3020   -14.3770    13.8190 c6         1 A1A       0.016700
     18 C05         38.5920   -15.0900    12.6690 c6         1 A1A      -0.079400
     19 C06         37.0790   -14.9020    12.6950 c6         1 A1A      -0.072400
     20 C07         36.5130   -15.2550    14.0650 c6         1 A1A      -0.106400
     21 C08         37.2640   -14.5070    15.1560 c6         1 A1A       0.090000
     22 C17         40.3340   -11.5800    18.1390 cd         1 A1A      -0.147100
     23 C25         37.1340   -10.7590    19.5460 ca         1 A1A      -0.103000
     24 C36         39.4250   -15.2570    20.4630 ca         1 A1A      -0.088800
     25 C37         38.7540   -14.2440    21.1550 ca         1 A1A      -0.092000
     26 C38         39.2470   -13.8280    22.3800 ca         1 A1A      -0.140000
     27 C39         40.3940   -14.4160    22.9330 ca         1 A1A      -0.092000
     28 C40         41.0640   -15.4360    22.2810 ca         1 A1A      -0.121000
     29 C41         40.5650   -15.8520    21.0500 ca         1 A1A      -0.040200
     30 C43         38.1750   -15.7230    18.1760 c6         1 A1A       0.003800
     31 F23         35.5630    -8.3330    17.3700 f          1 A1A      -0.183000
     32 N03         38.6970   -14.7690    15.0900 n          1 A1A      -0.398800
     33 N10         39.8760   -12.1840    14.6900 ns         1 A1A      -0.505900
     34 N13         41.8880   -10.9390    13.1850 nt         1 A1A      -0.601000
     35 N28         39.1650   -17.7590    17.1110 n          1 A1A      -0.385800
     36 N42         41.0000   -16.8340    20.2040 na         1 A1A      -0.218700
     37 O01         40.5360   -15.9040    15.7420 o          1 A1A      -0.606100
     38 O14         40.5320    -9.1430    12.9880 o          1 A1A      -0.598100
     39 O26         39.0150   -12.3010    12.6190 o          1 A1A      -0.585100
     40 O32         38.2910   -18.5080    15.1650 o          1 A1A      -0.595100
     41 H1          38.9830   -10.3000    14.5700 h1         1 A1A       0.088700
     42 H2          41.6530   -10.6060    16.0290 hc         1 A1A       0.061200
     43 H3          40.6660    -9.1600    15.9310 hc         1 A1A       0.061200
     44 H4          39.5060   -12.3320    19.9270 hn         1 A1A       0.364000
     45 H5          37.8220    -8.8230    16.2040 ha         1 A1A       0.141000
     46 H6          35.2740    -9.6930    19.5400 ha         1 A1A       0.130000
     47 H7          37.5610   -16.7210    16.4030 h1         1 A1A       0.096700
     48 H8          39.4770   -20.6750    15.4970 hc         1 A1A       0.063700
     49 H9          40.8200   -19.8690    16.3100 hc         1 A1A       0.063700
     50 H10         39.4760   -20.4910    17.2560 hc         1 A1A       0.063700
     51 H11         41.2470   -17.7610    17.5000 h1         1 A1A       0.059200
     52 H12         40.2940   -18.8690    18.4730 h1         1 A1A       0.059200
     53 H13         40.3450   -14.7030    13.8390 h1         1 A1A       0.094700
     54 H14         39.0110   -14.7620    11.7170 hc         1 A1A       0.061200
     55 H15         38.8260   -16.1550    12.7610 hc         1 A1A       0.061200
     56 H16         36.8270   -13.8670    12.4530 hc         1 A1A       0.054200
     57 H17         36.6190   -15.5230    11.9240 hc         1 A1A       0.054200
     58 H18         35.4520   -15.0050    14.1230 hc         1 A1A       0.055700
     59 H19         36.5980   -16.3310    14.2420 hc         1 A1A       0.055700
     60 H20         37.1150   -13.4290    15.0450 h1         1 A1A       0.054700
     61 H21         36.8750   -14.7510    16.1410 h1         1 A1A       0.054700
     62 H22         41.2710   -12.1150    18.1790 h4         1 A1A       0.217000
     63 H23         36.9330   -11.2840    20.4710 ha         1 A1A       0.116000
     64 H24         37.8520   -13.8010    20.7490 ha         1 A1A       0.115000
     65 H25         38.7360   -13.0450    22.9250 ha         1 A1A       0.115000
     66 H26         40.7580   -14.0720    23.8920 ha         1 A1A       0.116000
     67 H27         41.9420   -15.8960    22.7170 ha         1 A1A       0.118000
     68 H28         38.0520   -14.6590    17.9620 hc         1 A1A       0.061700
     69 H29         37.2010   -16.0690    18.5350 hc         1 A1A       0.061700
     70 H30         40.0680   -12.6710    15.5530 hn         1 A1A       0.333500
     71 H31         42.5040   -10.6350    12.4490 hn         1 A1A       0.314000
     72 H32         42.0820   -11.8260    13.6170 hn         1 A1A       0.314000
     73 H33         41.7890   -17.4390    20.3660 hn         1 A1A       0.354000
     74 C09         39.3510   -12.8590    13.6500 c          1 A1A       0.585100
     75 C29         39.0070   -18.7020    16.1360 c          1 A1A       0.602100
@<TRIPOS>BOND
     1     1     2 1   
     2     1     3 1   
     3     1    33 1   
     4     1    41 1   
     5     2    34 1   
     6     2    38 2   
     7     3     4 1   
     8     3    42 1   
     9     3    43 1   
    10     4     7 1   
    11     4    22 2   
    12     5     6 1   
    13     5    22 1   
    14     5    44 1   
    15     6     7 ar  
    16     6    23 ar  
    17     7     8 ar  
    18     8     9 ar  
    19     8    45 1   
    20     9    10 ar  
    21     9    31 1   
    22    10    23 ar  
    23    10    46 1   
    24    11    16 1   
    25    11    30 1   
    26    11    35 1   
    27    11    47 1   
    28    12    48 1   
    29    12    49 1   
    30    12    50 1   
    31    12    75 1   
    32    13    14 1   
    33    13    35 1   
    34    13    51 1   
    35    13    52 1   
    36    14    15 2   
    37    14    36 1   
    38    15    24 1   
    39    15    30 1   
    40    16    32 1   
    41    16    37 2   
    42    17    18 1   
    43    17    32 1   
    44    17    53 1   
    45    17    74 1   
    46    18    19 1   
    47    18    54 1   
    48    18    55 1   
    49    19    20 1   
    50    19    56 1   
    51    19    57 1   
    52    20    21 1   
    53    20    58 1   
    54    20    59 1   
    55    21    32 1   
    56    21    60 1   
    57    21    61 1   
    58    22    62 1   
    59    23    63 1   
    60    24    25 ar  
    61    24    29 ar  
    62    25    26 ar  
    63    25    64 1   
    64    26    27 ar  
    65    26    65 1   
    66    27    28 ar  
    67    27    66 1   
    68    28    29 ar  
    69    28    67 1   
    70    29    36 1   
    71    30    68 1   
    72    30    69 1   
    73    33    70 1   
    74    33    74 1   
    75    34    71 1   
    76    34    72 1   
    77    35    75 1   
    78    36    73 1   
    79    39    74 2   
    80    40    75 2   
@<TRIPOS>SUBSTRUCTURE
     1 A1A         1 TEMP              0 ****  ****    0 ROOT
