@<TRIPOS>MOLECULE
A1A
   45    47     1     0     0
SMALL
abcg2


@<TRIPOS>ATOM
      1 N1          87.2770    35.8490    11.7960 ns         1 A1A      -0.150000
      2 C4          88.9320    33.8040    15.0880 ca         1 A1A      -0.151300
      3 C5          89.4040    35.0550    14.7290 ca         1 A1A      -0.051000
      4 C6          88.9010    35.7810    13.6550 ca         1 A1A      -0.165000
      5 C7          87.8720    35.2290    12.9000 ca         1 A1A       0.023000
      6 C8          87.5350    37.0660    11.2550 c          1 A1A       0.606100
      7 C10         86.5190    38.8200     9.7860 ca         1 A1A      -0.066300
      8 C13         86.1270    41.5540     9.4660 ca         1 A1A      -0.010900
      9 C15         87.5080    39.6180     9.2180 ca         1 A1A      -0.090500
     10 C17         87.8940    33.2610    14.3150 ca         1 A1A       0.175100
     11 O2          88.3430    37.8580    11.6980 o          1 A1A      -0.559100
     12 C9          86.7380    37.3520     9.9890 c3         1 A1A      -0.114100
     13 C14         87.3220    40.9830     9.0530 ca         1 A1A      -0.083000
     14 BR          85.8630    43.4130     9.2490 br         1 A1A      -0.097100
     15 C12         85.1230    40.7830    10.0310 ca         1 A1A      -0.083000
     16 C11         85.3310    39.4190    10.1870 ca         1 A1A      -0.090500
     17 C16         87.3740    33.9650    13.2380 ca         1 A1A      -0.260000
     18 O3          87.4530    32.0460    14.6870 os         1 A1A      -0.346100
     19 C18         86.4100    31.4360    13.9540 c3         1 A1A       0.148900
     20 C3          89.4800    33.0850    16.2860 c3         1 A1A      -0.038100
     21 C2          88.5710    33.2080    17.5140 c5         1 A1A       0.072700
     22 C1          89.2200    32.6810    18.7970 c5         1 A1A       0.144600
     23 O1          89.7720    33.8420    19.4250 os         1 A1A      -0.421100
     24 N           88.3530    34.5790    17.9210 ns         1 A1A      -0.525900
     25 C           89.1860    34.9430    18.9210 c          1 A1A       0.683100
     26 O           89.4070    36.0470    19.3560 o          1 A1A      -0.532000
     27 H1          86.5650    35.3010    11.3370 hn         1 A1A       0.149000
     28 H2          90.2080    35.4890    15.3130 ha         1 A1A       0.123000
     29 H3          89.3140    36.7480    13.4270 ha         1 A1A       0.156000
     30 H4          88.4380    39.1730     8.8890 ha         1 A1A       0.116500
     31 H5          85.7840    36.8210    10.0040 hc         1 A1A       0.066700
     32 H6          87.3100    36.9340     9.1550 hc         1 A1A       0.066700
     33 H7          88.1030    41.5830     8.6070 ha         1 A1A       0.131500
     34 H8          84.1890    41.2260    10.3500 ha         1 A1A       0.131500
     35 H9          84.5460    38.8170    10.6280 ha         1 A1A       0.116500
     36 H10         86.5730    33.5460    12.6430 ha         1 A1A       0.113000
     37 H11         86.2270    30.4720    14.4230 h1         1 A1A       0.042367
     38 H12         85.4890    32.0230    13.9870 h1         1 A1A       0.042367
     39 H13         86.6870    31.2720    12.9100 h1         1 A1A       0.042367
     40 H14         89.6290    32.0220    16.0790 hc         1 A1A       0.061200
     41 H15         90.4630    33.4970    16.5310 hc         1 A1A       0.061200
     42 H16         87.6220    32.7040    17.3270 h1         1 A1A       0.085700
     43 H17         88.4840    32.2290    19.4650 h1         1 A1A       0.067200
     44 H18         90.0180    31.9640    18.6100 h1         1 A1A       0.067200
     45 H19         87.9780    35.2750    17.2960 hn         1 A1A       0.342500
@<TRIPOS>BOND
     1     1     5 1   
     2     1     6 1   
     3     1    27 1   
     4     2     3 ar  
     5     2    10 ar  
     6     2    20 1   
     7     3     4 ar  
     8     3    28 1   
     9     4     5 ar  
    10     4    29 1   
    11     5    17 ar  
    12     6    11 2   
    13     6    12 1   
    14     7     9 ar  
    15     7    12 1   
    16     7    16 ar  
    17     8    13 ar  
    18     8    14 1   
    19     8    15 ar  
    20     9    13 ar  
    21     9    30 1   
    22    10    17 ar  
    23    10    18 1   
    24    12    31 1   
    25    12    32 1   
    26    13    33 1   
    27    15    16 ar  
    28    15    34 1   
    29    16    35 1   
    30    17    36 1   
    31    18    19 1   
    32    19    37 1   
    33    19    38 1   
    34    19    39 1   
    35    20    21 1   
    36    20    40 1   
    37    20    41 1   
    38    21    22 1   
    39    21    24 1   
    40    21    42 1   
    41    22    23 1   
    42    22    43 1   
    43    22    44 1   
    44    23    25 1   
    45    24    25 1   
    46    24    45 1   
    47    25    26 2   
@<TRIPOS>SUBSTRUCTURE
     1 A1A         1 TEMP              0 ****  ****    0 ROOT
