@<TRIPOS>MOLECULE
A1A
   46    50     1     0     0
SMALL
abcg2


@<TRIPOS>ATOM
      1 C1         -37.3880    13.1190    -9.1830 ca         1 A1A      -0.091000
      2 C2         -37.9080    12.4110   -10.2790 ca         1 A1A      -0.138000
      3 C3         -38.5680    13.0610   -11.3030 ca         1 A1A      -0.061000
      4 C4         -38.7130    14.4530   -11.2450 ca         1 A1A      -0.084800
      5 C5         -39.3430    15.4360   -12.0830 cc         1 A1A      -0.091400
      6 C6         -40.0230    15.2270   -13.3620 ca         1 A1A      -0.026800
      7 C7         -41.1700    16.0070   -13.6790 ca         1 A1A      -0.078000
      8 C8         -41.8590    15.8810   -14.8610 ca         1 A1A      -0.112000
      9 C9         -41.3800    14.9210   -15.7570 ca         1 A1A      -0.088200
     10 C10        -40.2610    14.1390   -15.4710 ca         1 A1A       0.015400
     11 C11        -39.5640    14.2900   -14.2690 ca         1 A1A      -0.030000
     12 N1         -40.0410    13.3140   -16.5350 nc         1 A1A      -0.225400
     13 N2         -40.9400    13.5500   -17.4150 nd         1 A1A      -0.165400
     14 N3         -41.7560    14.5060   -16.9900 na         1 A1A       0.070600
     15 C12        -42.8910    14.9320   -17.7800 c3         1 A1A       0.089600
     16 C13        -44.2240    14.4430   -17.2230 c6         1 A1A      -0.083700
     17 C14        -45.3640    14.9840   -18.0830 c6         1 A1A      -0.072900
     18 C15        -46.7050    14.4610   -17.5930 c6         1 A1A       0.160300
     19 N4         -46.6970    13.0090   -17.5970 n7         1 A1A      -0.861400
     20 C16        -45.6890    12.4810   -16.6950 c6         1 A1A       0.160300
     21 C17        -44.3030    12.9210   -17.1440 c6         1 A1A      -0.072900
     22 C18        -39.1850    16.6380   -11.4410 cd         1 A1A      -0.147100
     23 N5         -38.4990    16.4620   -10.2800 na         1 A1A      -0.218700
     24 C19        -38.1970    15.1400   -10.1240 ca         1 A1A      -0.051200
     25 C20        -37.5290    14.4900    -9.0890 ca         1 A1A      -0.128000
     26 H1         -36.8740    12.5810    -8.3970 ha         1 A1A       0.111000
     27 H2         -37.7920    11.3350   -10.3160 ha         1 A1A       0.112000
     28 H3         -38.9710    12.4920   -12.1310 ha         1 A1A       0.119000
     29 H4         -41.5260    16.7210   -12.9470 ha         1 A1A       0.112000
     30 H5         -42.7290    16.4880   -15.0700 ha         1 A1A       0.122000
     31 H6         -38.6760    13.7020   -14.0750 ha         1 A1A       0.138000
     32 H8         -42.7340    14.5470   -18.7880 h1         1 A1A       0.070200
     33 H7         -42.8770    16.0230   -17.8370 h1         1 A1A       0.070200
     34 H9         -44.3500    14.8450   -16.2090 hc         1 A1A       0.051700
     35 H11        -45.2160    14.6750   -19.1230 hc         1 A1A       0.052700
     36 H10        -45.3650    16.0770   -18.0680 hc         1 A1A       0.052700
     37 H12        -46.9030    14.8790   -16.5920 h1         1 A1A       0.030700
     38 H13        -47.5040    14.8140   -18.2480 h1         1 A1A       0.030700
     39 H14        -47.6080    12.6660   -17.3230 hn         1 A1A       0.412000
     40 H15        -45.8430    12.8110   -15.6540 h1         1 A1A       0.030700
     41 H16        -45.7510    11.3910   -16.6950 h1         1 A1A       0.030700
     42 H18        -44.0840    12.4920   -18.1280 hc         1 A1A       0.052700
     43 H17        -43.5590    12.5270   -16.4470 hc         1 A1A       0.052700
     44 H19        -39.5020    17.6230   -11.7460 h4         1 A1A       0.213000
     45 H20        -38.2520    17.1990    -9.6390 hn         1 A1A       0.351000
     46 H21        -37.1390    15.0380    -8.2400 ha         1 A1A       0.113000
@<TRIPOS>BOND
     1     1     2 ar  
     2     1    25 ar  
     3     1    26 1   
     4     2     3 ar  
     5     2    27 1   
     6     3     4 ar  
     7     3    28 1   
     8     4     5 1   
     9     4    24 ar  
    10     5     6 1   
    11     5    22 2   
    12     6     7 ar  
    13     6    11 ar  
    14     7     8 ar  
    15     7    29 1   
    16     8     9 ar  
    17     8    30 1   
    18     9    10 ar  
    19     9    14 1   
    20    10    11 ar  
    21    10    12 1   
    22    11    31 1   
    23    12    13 2   
    24    13    14 1   
    25    14    15 1   
    26    15    16 1   
    27    15    32 1   
    28    15    33 1   
    29    16    17 1   
    30    16    21 1   
    31    16    34 1   
    32    17    18 1   
    33    17    35 1   
    34    17    36 1   
    35    18    19 1   
    36    18    37 1   
    37    18    38 1   
    38    19    20 1   
    39    19    39 1   
    40    20    21 1   
    41    20    40 1   
    42    20    41 1   
    43    21    42 1   
    44    21    43 1   
    45    22    23 1   
    46    22    44 1   
    47    23    24 1   
    48    23    45 1   
    49    24    25 ar  
    50    25    46 1   
@<TRIPOS>SUBSTRUCTURE
     1 A1A         1 TEMP              0 ****  ****    0 ROOT
