@<TRIPOS>MOLECULE
A1A
   61    64     1     0     0
SMALL
abcg2


@<TRIPOS>ATOM
      1 N1           9.6350    -3.9890    22.7640 na         1 A1A      -0.190700
      2 C5          10.8090    -2.9830    24.3760 cc         1 A1A      -0.189200
      3 C6          11.7550    -6.5660    25.1310 ca         1 A1A      -0.144000
      4 C7          10.9850    -7.1420    24.1020 ca         1 A1A      -0.083000
      5 C8          11.7800    -5.2020    25.3220 ca         1 A1A      -0.052000
      6 C10         11.0200    -4.3880    24.4700 ca         1 A1A      -0.118800
      7 N12          9.4090    -0.4010    23.2970 n          1 A1A      -0.380800
      8 C13          8.9540     0.7830    22.5860 c5         1 A1A       0.027700
      9 C17          9.6940    -0.1260    24.6960 c5         1 A1A       0.113000
     10 C22          9.8750     1.9640    19.0850 c3         1 A1A       0.106700
     11 C26          9.1520    -1.2420    16.9770 c          1 A1A       0.564000
     12 C28         11.1280    -2.2410    17.7570 c5         1 A1A       0.100000
     13 C2           9.9550    -2.7770    23.3210 cd         1 A1A      -0.133300
     14 C3           9.4240    -1.5750    22.6490 c          1 A1A       0.643300
     15 O4           9.0030    -1.6760    21.4980 o          1 A1A      -0.636100
     16 C9          10.2290    -6.3690    23.2470 ca         1 A1A      -0.130000
     17 C11         10.2590    -4.9850    23.4400 ca         1 A1A      -0.034200
     18 C14          9.8630     1.0860    21.3990 c          1 A1A       0.604100
     19 O15         11.0720     0.9380    21.4830 o          1 A1A      -0.595100
     20 C16          9.0370     1.8900    23.6440 c5         1 A1A      -0.081400
     21 C18          8.8990     1.1510    24.9800 c5         1 A1A      -0.067000
     22 C19          7.4350     0.8160    25.2670 c3         1 A1A      -0.083600
     23 N21          9.2290     1.5720    20.3210 ns         1 A1A      -0.501900
     24 C23          9.6070     3.4490    18.8530 c3         1 A1A       0.149600
     25 O24         10.2710     3.8550    17.6820 oh         1 A1A      -0.655000
     26 C25          9.3940     1.0980    17.9210 c3         1 A1A      -0.069400
     27 C27         11.1110    -0.8010    18.2700 c5         1 A1A      -0.090400
     28 C29          9.6470    -0.3860    18.1330 c5         1 A1A      -0.157700
     29 N30         10.0380    -2.2380    16.8050 ns         1 A1A      -0.514900
     30 H1           9.0410    -4.1000    21.9570 hn         1 A1A       0.369000
     31 H2          11.2700    -2.2340    24.9970 ha         1 A1A       0.206000
     32 H3          12.3340    -7.2110    25.7790 ha         1 A1A       0.112000
     33 H4          10.9880    -8.2170    23.9800 ha         1 A1A       0.111000
     34 H5          12.3740    -4.7650    26.1150 ha         1 A1A       0.114000
     35 H6           7.9220     0.6460    22.2500 h1         1 A1A       0.068700
     36 H7           9.3840    -0.9530    25.3350 h1         1 A1A       0.060200
     37 H8          10.7660     0.0420    24.8500 h1         1 A1A       0.060200
     38 H9           9.4530     1.3570    27.0660 hc         1 A1A       0.040200
     39 H10         10.5370     2.1950    25.9520 hc         1 A1A       0.040200
     40 H11          8.9410     2.8610    26.3080 hc         1 A1A       0.040200
     41 H12         10.9480     1.8240    19.2270 h1         1 A1A       0.093700
     42 H13         10.9480    -2.9580    18.5640 h1         1 A1A       0.044200
     43 H14         12.0700    -2.5070    17.2760 h1         1 A1A       0.044200
     44 H15          9.6390    -6.8140    22.4560 ha         1 A1A       0.117000
     45 H16         10.0090     2.3880    23.6000 hc         1 A1A       0.064200
     46 H17          8.2680     2.6480    23.4950 hc         1 A1A       0.064200
     47 H18          7.3460     0.2430    26.1920 hc         1 A1A       0.040200
     48 H19          6.8500     1.7300    25.3790 hc         1 A1A       0.040200
     49 H20          6.9780     0.2260    24.4700 hc         1 A1A       0.040200
     50 H21          8.2210     1.6120    20.3420 hn         1 A1A       0.312500
     51 H22          9.9540     4.0050    19.7340 h1         1 A1A       0.021200
     52 H23          8.5210     3.6050    18.7800 h1         1 A1A       0.021200
     53 H24         10.0340     4.7690    17.5020 ho         1 A1A       0.447000
     54 H25          9.8990     1.4250    17.0090 hc         1 A1A       0.064700
     55 H26          8.3240     1.2680    17.7670 hc         1 A1A       0.064700
     56 H27         11.4870    -0.7200    19.2880 hc         1 A1A       0.065200
     57 H28         11.7360    -0.1720    17.6310 hc         1 A1A       0.065200
     58 H29          9.0950    -0.7260    19.0180 hc         1 A1A       0.093700
     59 H30          9.8630    -3.0050    16.1740 hn         1 A1A       0.322500
     60 C20          9.4930     1.9350    26.1410 c3         1 A1A      -0.083600
     61 O31          8.1300    -1.0680    16.3330 o          1 A1A      -0.565000
@<TRIPOS>BOND
     1     1    13 1   
     2     1    17 1   
     3     1    30 1   
     4     2     6 1   
     5     2    13 2   
     6     2    31 1   
     7     3     4 ar  
     8     3     5 ar  
     9     3    32 1   
    10     4    16 ar  
    11     4    33 1   
    12     5     6 ar  
    13     5    34 1   
    14     6    17 ar  
    15     7     8 1   
    16     7     9 1   
    17     7    14 1   
    18     8    18 1   
    19     8    20 1   
    20     8    35 1   
    21     9    21 1   
    22     9    36 1   
    23     9    37 1   
    24    10    23 1   
    25    10    24 1   
    26    10    26 1   
    27    10    41 1   
    28    11    28 1   
    29    11    29 1   
    30    11    61 2   
    31    12    27 1   
    32    12    29 1   
    33    12    42 1   
    34    12    43 1   
    35    13    14 1   
    36    14    15 2   
    37    16    17 ar  
    38    16    44 1   
    39    18    19 2   
    40    18    23 1   
    41    20    21 1   
    42    20    45 1   
    43    20    46 1   
    44    21    22 1   
    45    21    60 1   
    46    22    47 1   
    47    22    48 1   
    48    22    49 1   
    49    23    50 1   
    50    24    25 1   
    51    24    51 1   
    52    24    52 1   
    53    25    53 1   
    54    26    28 1   
    55    26    54 1   
    56    26    55 1   
    57    27    28 1   
    58    27    56 1   
    59    27    57 1   
    60    28    58 1   
    61    29    59 1   
    62    38    60 1   
    63    39    60 1   
    64    40    60 1   
@<TRIPOS>SUBSTRUCTURE
     1 A1A         1 TEMP              0 ****  ****    0 ROOT
