@<TRIPOS>MOLECULE
A1A
   52    54     1     0     0
SMALL
abcg2


@<TRIPOS>ATOM
      1 C01        -69.3000    25.0910    33.6700 ca         1 A1A       0.170100
      2 C02        -70.4390    25.6020    33.0150 ca         1 A1A       0.316300
      3 C04        -69.6450    24.8940    30.9820 ca         1 A1A       0.295900
      4 C05        -68.5010    24.3300    31.5260 ca         1 A1A      -0.068800
      5 C06        -68.3190    24.4330    32.9170 ca         1 A1A      -0.217900
      6 C07        -67.2020    23.7810    33.5940 ce         1 A1A       0.488800
      7 C08        -71.5210    26.2660    33.8060 c3         1 A1A      -0.132400
      8 C10        -67.5220    23.6710    30.6600 ce         1 A1A      -0.098200
      9 C11        -67.8620    22.9260    29.6040 cf         1 A1A      -0.286800
     10 C12        -66.9240    22.2980    28.7000 cd         1 A1A       0.455300
     11 C18        -66.0790    23.0710    35.5350 c3         1 A1A       0.097500
     12 C19        -66.7860    21.9100    36.2370 c3         1 A1A       0.162600
     13 C20        -65.2750    23.9300    36.5110 c3         1 A1A      -0.043400
     14 C21        -66.0840    24.6200    37.6000 c3         1 A1A      -0.214400
     15 C22        -65.2690    25.5540    38.5200 c          1 A1A       0.719000
     16 C26        -68.4950    21.1670    34.6950 ca         1 A1A       0.137100
     17 C27        -68.6270    20.6200    33.4200 ca         1 A1A      -0.163000
     18 C28        -69.8170    20.7520    32.7220 ca         1 A1A      -0.082500
     19 C29        -70.8900    21.4360    33.2800 ca         1 A1A      -0.146000
     20 C30        -70.7550    21.9750    34.5510 ca         1 A1A      -0.082500
     21 C31        -69.5720    21.8400    35.2670 ca         1 A1A      -0.163000
     22 N03        -70.5800    25.4990    31.7070 nb         1 A1A      -0.647000
     23 N13        -65.5870    22.3190    28.7410 na         1 A1A      -0.211700
     24 N14        -65.1120    21.6130    27.7320 nd         1 A1A      -0.210800
     25 N15        -66.1220    21.1740    27.0900 nc         1 A1A      -0.049000
     26 N16        -67.2590    21.5720    27.6530 nc         1 A1A      -0.390000
     27 N17        -67.0780    23.8590    34.8550 n2         1 A1A      -0.620900
     28 O09        -69.2190    25.2360    34.9840 oh         1 A1A      -0.541100
     29 O23        -64.0260    25.5110    38.4360 o          1 A1A      -0.734500
     30 O24        -65.9410    26.2720    39.2890 o          1 A1A      -0.734500
     31 H1         -69.8030    24.8780    29.9090 h4         1 A1A       0.017100
     32 H2         -66.5150    23.1770    32.9970 h4         1 A1A      -0.025200
     33 H4         -72.3160    26.6010    33.1440 hc         1 A1A       0.052033
     34 H5         -71.9510    25.5830    34.5420 hc         1 A1A       0.052033
     35 H6         -71.1450    27.1290    34.3590 hc         1 A1A       0.052033
     36 H7         -66.4740    23.8230    30.8990 ha         1 A1A       0.171000
     37 H8         -68.9010    22.7350    29.3660 ha         1 A1A       0.217000
     38 H9         -65.3800    22.6320    34.8090 h1         1 A1A       0.030700
     39 H10        -66.0530    21.3640    36.8340 h1         1 A1A       0.072700
     40 H11        -67.5550    22.2740    36.9200 h1         1 A1A       0.072700
     41 H12        -64.5110    23.2910    36.9600 hc         1 A1A       0.052200
     42 H13        -64.7350    24.6770    35.9240 hc         1 A1A       0.052200
     43 H14        -66.8990    25.2010    37.1610 hc         1 A1A       0.022200
     44 H15        -66.5730    23.8780    38.2410 hc         1 A1A       0.022200
     45 H16        -67.7860    20.1020    32.9750 ha         1 A1A       0.124000
     46 H17        -69.8990    20.3260    31.7300 ha         1 A1A       0.110000
     47 H18        -71.8150    21.5500    32.7310 ha         1 A1A       0.111000
     48 H19        -71.5810    22.5110    35.0030 ha         1 A1A       0.110000
     49 H20        -69.5060    22.2740    36.2550 ha         1 A1A       0.124000
     50 H21        -64.9560    22.7620    29.3950 hn         1 A1A       0.389000
     51 H24        -68.3880    24.7600    35.2820 ho         1 A1A       0.541000
     52 O25        -67.2990    20.9720    35.3050 os         1 A1A      -0.373100
@<TRIPOS>BOND
     1     1     2 ar  
     2     1     5 ar  
     3     1    28 1   
     4     2     7 1   
     5     2    22 ar  
     6     3     4 ar  
     7     3    22 ar  
     8     3    31 1   
     9     4     5 ar  
    10     4     8 1   
    11     5     6 1   
    12     6    27 2   
    13     6    32 1   
    14     7    33 1   
    15     7    34 1   
    16     7    35 1   
    17     8     9 2   
    18     8    36 1   
    19     9    10 1   
    20     9    37 1   
    21    10    23 1   
    22    10    26 2   
    23    11    12 1   
    24    11    13 1   
    25    11    27 1   
    26    11    38 1   
    27    12    39 1   
    28    12    40 1   
    29    12    52 1   
    30    13    14 1   
    31    13    41 1   
    32    13    42 1   
    33    14    15 1   
    34    14    43 1   
    35    14    44 1   
    36    15    29 1   
    37    15    30 1   
    38    16    17 ar  
    39    16    21 ar  
    40    16    52 1   
    41    17    18 ar  
    42    17    45 1   
    43    18    19 ar  
    44    18    46 1   
    45    19    20 ar  
    46    19    47 1   
    47    20    21 ar  
    48    20    48 1   
    49    21    49 1   
    50    23    24 1   
    51    23    50 1   
    52    24    25 2   
    53    25    26 1   
    54    28    51 1   
@<TRIPOS>SUBSTRUCTURE
     1 A1A         1 TEMP              0 ****  ****    0 ROOT
