@<TRIPOS>MOLECULE
A1A
   32    32     1     0     0
SMALL
abcg2


@<TRIPOS>ATOM
      1 C01        124.8770   140.8510    93.1590 c3         1 A1A       0.148900
      2 O02        126.1690   140.4670    93.5790 os         1 A1A      -0.343100
      3 C03        126.2970   139.3560    94.3250 ca         1 A1A       0.126600
      4 C05        125.4660   137.4260    95.5270 ca         1 A1A      -0.036300
      5 C06        126.7650   137.0880    95.8750 ca         1 A1A      -0.176000
      6 C07        127.8310   137.8720    95.4460 ca         1 A1A       0.126600
      7 C08        127.6100   139.0130    94.6830 ca         1 A1A       0.044100
      8 C10        129.2010   139.4660    93.0350 c3         1 A1A       0.150900
      9 C12        129.6200   138.1280    96.9270 c3         1 A1A       0.148900
     10 C04        125.2370   138.5650    94.7540 ca         1 A1A      -0.176000
     11 C13        124.3090   136.5560    95.9310 c3         1 A1A      -0.036100
     12 C14        123.9390   135.5610    94.8330 c3         1 A1A       0.150800
     13 N15        122.8090   134.7430    95.2430 n8         1 A1A      -0.999200
     14 O09        128.6480   139.8020    94.3000 os         1 A1A      -0.341100
     15 O11        129.1070   137.5130    95.7560 os         1 A1A      -0.343100
     16 H1         125.0020   141.7480    92.5570 h1         1 A1A       0.039867
     17 H2         124.4000   140.0810    92.5470 h1         1 A1A       0.039867
     18 H3         124.2230   141.0840    94.0040 h1         1 A1A       0.039867
     19 H4         126.9630   136.2060    96.4730 ha         1 A1A       0.123000
     20 H5         130.0180   140.1610    92.8470 h1         1 A1A       0.035700
     21 H6         129.5990   138.4480    93.0260 h1         1 A1A       0.035700
     22 H7         128.4680   139.5630    92.2310 h1         1 A1A       0.035700
     23 H8         130.6400   137.7690    97.0590 h1         1 A1A       0.039867
     24 H9         129.6400   139.2170    96.8420 h1         1 A1A       0.039867
     25 H10        129.0360   137.8570    97.8110 h1         1 A1A       0.039867
     26 H11        124.2170   138.8180    94.4940 ha         1 A1A       0.123000
     27 H12        123.4340   137.1710    96.1590 hc         1 A1A       0.055700
     28 H13        124.5600   136.0090    96.8440 hc         1 A1A       0.055700
     29 H14        124.8350   134.9810    94.5680 h1         1 A1A       0.032200
     30 H15        123.6550   136.1150    93.9350 h1         1 A1A       0.032200
     31 H16        122.5460   134.1270    94.4840 hn         1 A1A       0.393000
     32 H17        123.0940   134.1330    96.0000 hn         1 A1A       0.393000
@<TRIPOS>BOND
     1     1     2 1   
     2     1    16 1   
     3     1    17 1   
     4     1    18 1   
     5     2     3 1   
     6     3     7 ar  
     7     3    10 ar  
     8     4     5 ar  
     9     4    10 ar  
    10     4    11 1   
    11     5     6 ar  
    12     5    19 1   
    13     6     7 ar  
    14     6    15 1   
    15     7    14 1   
    16     8    14 1   
    17     8    20 1   
    18     8    21 1   
    19     8    22 1   
    20     9    15 1   
    21     9    23 1   
    22     9    24 1   
    23     9    25 1   
    24    10    26 1   
    25    11    12 1   
    26    11    27 1   
    27    11    28 1   
    28    12    13 1   
    29    12    29 1   
    30    12    30 1   
    31    13    31 1   
    32    13    32 1   
@<TRIPOS>SUBSTRUCTURE
     1 A1A         1 TEMP              0 ****  ****    0 ROOT
