@<TRIPOS>MOLECULE
A1A
   85    93     1     0     0
SMALL
abcg2


@<TRIPOS>ATOM
      1 N1           1.9310    15.2150    19.4030 nh         1 A1A      -0.796300
      2 N3           0.3550    12.0790    12.7270 nc         1 A1A      -0.616100
      3 C4           2.9520    14.9160    17.1920 ca         1 A1A      -0.017300
      4 C5           3.7200    16.0540    17.4340 ca         1 A1A      -0.059300
      5 C6           4.5220    16.5800    16.4210 ca         1 A1A      -0.089000
      6 C7           2.0520    14.3410    18.2650 c6         1 A1A       0.262100
      7 C8           3.1820    15.7900    19.8490 c6         1 A1A       0.223800
      8 C13         -0.1510     9.8970    13.4060 ca         1 A1A      -0.230000
      9 C15         -1.5490     9.3760    11.0930 ca         1 A1A      -0.110000
     10 C17         -0.7220     8.6410    13.2450 ca         1 A1A      -0.062000
     11 C20         -1.2650    14.2360    20.9130 ca         1 A1A      -0.056000
     12 C21         -1.3390    15.1710    21.9450 ca         1 A1A      -0.090000
     13 C22         -0.2350    16.0200    22.0800 ca         1 A1A       0.378500
     14 C24         -2.4800    15.2130    22.8600 cc         1 A1A      -0.092000
     15 C26         -2.4600    15.3270    24.2640 cc         1 A1A       0.284900
     16 C1           4.5700    15.9990    15.1690 ca         1 A1A      -0.124000
     17 C2           3.8020    14.8740    14.9150 ca         1 A1A      -0.097000
     18 C3           3.0000    14.3330    15.9130 ca         1 A1A      -0.156600
     19 C9           3.7060    16.7220    18.7800 c6         1 A1A      -0.049100
     20 C11          0.9210    12.0120    13.8810 cd         1 A1A       0.450800
     21 C12         -0.2680    10.8920    12.4250 ca         1 A1A       0.127400
     22 S1           0.7650    10.5050    14.7520 ss         1 A1A       0.129800
     23 C14         -0.9790    10.6250    11.2550 ca         1 A1A      -0.071000
     24 C16         -1.4220     8.3910    12.0770 ca         1 A1A      -0.119000
     25 C18          0.8490    15.1250    20.2440 ca         1 A1A       0.601900
     26 C19         -0.1890    14.1990    20.0490 ca         1 A1A      -0.268000
     27 N4           0.8090    15.9840    21.2620 nb         1 A1A      -0.727000
     28 O2          -0.8460    18.1040    22.9620 o          1 A1A      -0.701000
     29 O3           0.6100    16.8480    24.1120 o          1 A1A      -0.701000
     30 C25         -3.8290    15.1430    22.5490 cd         1 A1A      -0.152300
     31 N5          -4.4970    15.2080    23.7250 na         1 A1A       0.113800
     32 N6          -3.6750    15.3280    24.7690 nd         1 A1A      -0.552800
     33 C27         -5.9270    15.1530    23.9380 c3         1 A1A       0.102600
     34 C29         -6.4770    13.8070    24.4230 c6         1 A1A      -0.059000
     35 C30         -6.0630    12.6590    23.4940 c6         1 A1A      -0.064067
     36 C31         -6.6950    11.3440    23.9610 c6         1 A1A      -0.058700
     37 C32         -8.2190    11.4730    23.9440 c6         1 A1A      -0.067067
     38 C33         -8.6460    12.6050    24.8800 c6         1 A1A      -0.058700
     39 C34         -8.0100    13.9130    24.4090 c6         1 A1A      -0.064067
     40 C35         -8.1820    12.2910    26.3030 c6         1 A1A      -0.067067
     41 C36         -6.0270    13.4760    25.8520 c6         1 A1A      -0.064067
     42 C37         -6.2280    11.0320    25.3840 c6         1 A1A      -0.067067
     43 C38         -6.6590    12.1630    26.3200 c6         1 A1A      -0.058700
     44 H3           5.1200    17.4590    16.6310 ha         1 A1A       0.114000
     45 H4           1.0630    14.1910    17.8300 h1         1 A1A       0.060200
     46 H5           2.4180    13.3510    18.5640 h1         1 A1A       0.060200
     47 H6           3.0210    16.3250    20.7790 h1         1 A1A       0.065200
     48 H7           3.9110    14.9920    20.0450 h1         1 A1A       0.065200
     49 H16         -2.0550    13.5050    20.7900 ha         1 A1A       0.091000
     50 H18         -1.5980    15.4130    24.9090 h4         1 A1A       0.064100
     51 H1           5.2040    16.4110    14.3950 ha         1 A1A       0.112000
     52 H2           3.8540    14.4080    13.9390 ha         1 A1A       0.110000
     53 H8           3.0820    17.6200    18.7420 hc         1 A1A       0.061700
     54 H9           4.7150    17.0540    19.0350 hc         1 A1A       0.061700
     55 H11         -1.0760    11.3890    10.4950 ha         1 A1A       0.126000
     56 H13         -1.8770     7.4210    11.9260 ha         1 A1A       0.109000
     57 H15         -0.1520    13.4450    19.2760 ha         1 A1A       0.099000
     58 H19         -6.1890    15.9380    24.6510 h1         1 A1A       0.054200
     59 H20         -6.4090    15.4080    22.9920 h1         1 A1A       0.054200
     60 H25         -6.3760    12.8760    22.4670 hc         1 A1A       0.047200
     61 H24         -4.9730    12.5560    23.4790 hc         1 A1A       0.047200
     62 H26         -6.3850    10.5400    23.2860 hc         1 A1A       0.043033
     63 H28         -8.5700    11.6690    22.9250 hc         1 A1A       0.034867
     64 H27         -8.6800    10.5310    24.2590 hc         1 A1A       0.034867
     65 H29         -9.7350    12.7080    24.8600 hc         1 A1A       0.043033
     66 H31         -8.3540    14.1480    23.3950 hc         1 A1A       0.047200
     67 H30         -8.3330    14.7420    25.0490 hc         1 A1A       0.047200
     68 H32         -8.5000    13.0830    26.9880 hc         1 A1A       0.034867
     69 H33         -8.6450    11.3620    26.6510 hc         1 A1A       0.034867
     70 H35         -4.9390    13.3990    25.8990 hc         1 A1A       0.047200
     71 H34         -6.3130    14.2920    26.5260 hc         1 A1A       0.047200
     72 H36         -6.6520    10.0810    25.7200 hc         1 A1A       0.034867
     73 H37         -5.1390    10.9210    25.4070 hc         1 A1A       0.034867
     74 H38         -6.3190    11.9480    27.3380 hc         1 A1A       0.043033
     75 C10          2.2400    13.0900    15.6080 c          1 A1A       0.623700
     76 C28         -4.4970    15.0620    21.2220 c3         1 A1A      -0.020800
     77 H12         -2.1030     9.1570    10.1900 ha         1 A1A       0.110000
     78 H21         -4.9210    14.0760    21.0280 hc         1 A1A       0.040033
     79 H23         -5.3030    15.7900    21.1260 hc         1 A1A       0.040033
     80 H22         -3.7760    15.2670    20.4330 hc         1 A1A       0.040033
     81 C23         -0.1560    17.0900    23.1610 c          1 A1A       0.621500
     82 O1           2.1770    12.1320    16.3550 o          1 A1A      -0.561100
     83 N2           1.6110    13.0790    14.3950 ns         1 A1A      -0.401400
     84 H14         -0.6240     7.8790    14.0070 ha         1 A1A       0.120000
     85 H10          1.6090    13.9100    13.8190 hn         1 A1A       0.346500
@<TRIPOS>BOND
     1     1     6 1   
     2     1     7 1   
     3     1    25 1   
     4     2    20 2   
     5     2    21 1   
     6     3     4 ar  
     7     3     6 1   
     8     3    18 ar  
     9     4     5 ar  
    10     4    19 1   
    11     5    16 ar  
    12     5    44 1   
    13     6    45 1   
    14     6    46 1   
    15     7    19 1   
    16     7    47 1   
    17     7    48 1   
    18     8    10 ar  
    19     8    21 ar  
    20     8    22 1   
    21     9    23 ar  
    22     9    24 ar  
    23     9    77 1   
    24    10    24 ar  
    25    10    84 1   
    26    11    12 ar  
    27    11    26 ar  
    28    11    49 1   
    29    12    13 ar  
    30    12    14 1   
    31    13    27 ar  
    32    13    81 1   
    33    14    15 1   
    34    14    30 2   
    35    15    32 2   
    36    15    50 1   
    37    16    17 ar  
    38    16    51 1   
    39    17    18 ar  
    40    17    52 1   
    41    18    75 1   
    42    19    53 1   
    43    19    54 1   
    44    20    22 1   
    45    20    83 1   
    46    21    23 ar  
    47    23    55 1   
    48    24    56 1   
    49    25    26 ar  
    50    25    27 ar  
    51    26    57 1   
    52    28    81 1   
    53    29    81 1   
    54    30    31 1   
    55    30    76 1   
    56    31    32 1   
    57    31    33 1   
    58    33    34 1   
    59    33    58 1   
    60    33    59 1   
    61    34    35 1   
    62    34    39 1   
    63    34    41 1   
    64    35    36 1   
    65    35    60 1   
    66    35    61 1   
    67    36    37 1   
    68    36    42 1   
    69    36    62 1   
    70    37    38 1   
    71    37    63 1   
    72    37    64 1   
    73    38    39 1   
    74    38    40 1   
    75    38    65 1   
    76    39    66 1   
    77    39    67 1   
    78    40    43 1   
    79    40    68 1   
    80    40    69 1   
    81    41    43 1   
    82    41    70 1   
    83    41    71 1   
    84    42    43 1   
    85    42    72 1   
    86    42    73 1   
    87    43    74 1   
    88    75    82 2   
    89    75    83 1   
    90    76    78 1   
    91    76    79 1   
    92    76    80 1   
    93    83    85 1   
@<TRIPOS>SUBSTRUCTURE
     1 A1A         1 TEMP              0 ****  ****    0 ROOT
