@<TRIPOS>MOLECULE
A1A
   82    85     1     0     0
SMALL
abcg2


@<TRIPOS>ATOM
      1 O4          -2.9430     3.3560     1.5540 oh         1 A1A      -0.655000
      2 C16         -6.2850    -0.6180     1.8070 c          1 A1A       0.561000
      3 C15         -5.2370    -0.1840     0.7920 c5         1 A1A      -0.144700
      4 C13         -3.3280     1.4110     0.2680 c3         1 A1A       0.152700
      5 C18         -6.0750     0.2350    -0.4150 c5         1 A1A      -0.092400
      6 C17         -7.3400    -0.6170    -0.2920 c5         1 A1A       0.098000
      7 C4           4.6070    -2.1640    -0.6260 c5         1 A1A       0.110700
      8 O2           2.2640    -1.8790    -0.8860 os         1 A1A      -0.457100
      9 C3           4.5510    -3.6430    -0.2230 c5         1 A1A      -0.088400
     10 C2           5.1520    -3.6640     1.1750 c5         1 A1A      -0.170400
     11 C1           4.9040    -2.2680     1.7000 c          1 A1A       0.561000
     12 C7          -1.2810    -1.4680    -1.1940 c3         1 A1A       0.052700
     13 N3          -7.4340    -0.8170     1.1390 ns         1 A1A      -0.524900
     14 N2          -2.7140     0.3890    -0.5590 ns         1 A1A      -0.487900
     15 C8          -2.0720    -2.7680    -1.3910 c3         1 A1A      -0.090400
     16 O1           5.0090    -1.9030     2.8600 o          1 A1A      -0.559000
     17 C12         -1.9240    -0.5970    -0.1140 c          1 A1A       0.600100
     18 C19         -2.2720     2.3430     0.8700 c3         1 A1A      -0.098700
     19 C21          5.7650     0.7100     0.7540 c5         1 A1A      -0.092700
     20 C22          6.4310     0.7470    -0.6480 c5         1 A1A      -0.076400
     21 C23          6.6080     2.2650    -0.9210 c5         1 A1A      -0.052500
     22 C24          7.5980     2.7710     0.1030 c2         1 A1A      -0.239200
     23 C25          6.9900     2.7530     1.2890 c2         1 A1A      -0.222200
     24 C26          5.5880     2.2290     1.0700 c5         1 A1A      -0.038500
     25 C27          5.2990     2.7970    -0.3260 c5         1 A1A      -0.077400
     26 C5           3.5010    -1.7380    -1.5690 c3         1 A1A       0.177600
     27 N1           0.0690    -1.7540    -0.7740 ns         1 A1A      -0.481900
     28 N4           4.5760    -1.4750     0.6580 n          1 A1A      -0.396800
     29 O5          -1.7330    -0.8410     1.0690 o          1 A1A      -0.616100
     30 O6           1.1370    -1.1340    -2.6880 o          1 A1A      -0.542000
     31 H1          -2.2860     3.9730     1.8980 ho         1 A1A       0.459000
     32 H2          -4.6800    -1.0960     0.5430 hc         1 A1A       0.073700
     33 H3          -4.8600     1.7050     1.7200 hc         1 A1A       0.073200
     34 H4          -3.7240     0.4510     2.1780 hc         1 A1A       0.073200
     35 H5          -3.9230     2.0090    -0.4260 h1         1 A1A       0.070700
     36 H6          -6.3350     1.2940    -0.3390 hc         1 A1A       0.061200
     37 H7          -5.5690     0.0820    -1.3670 hc         1 A1A       0.061200
     38 H8          -8.2260    -0.1140    -0.6780 h1         1 A1A       0.033200
     39 H9          -7.2370    -1.5700    -0.8190 h1         1 A1A       0.033200
     40 H10          5.5500    -1.9580    -1.1470 h1         1 A1A       0.047700
     41 H11          3.5170    -3.9870    -0.1900 hc         1 A1A       0.058200
     42 H12          5.0870    -4.2670    -0.9350 hc         1 A1A       0.058200
     43 H13          4.7230    -4.4180     1.8340 hc         1 A1A       0.068700
     44 H14          6.2330    -3.8290     1.1520 hc         1 A1A       0.068700
     45 H15         -1.2240    -0.9210    -2.1350 h1         1 A1A       0.099700
     46 H16         -4.0620    -1.9560    -1.2880 hc         1 A1A       0.055700
     47 H17         -8.2430    -1.2270     1.5790 hn         1 A1A       0.312500
     48 H18         -2.7150     0.5700    -1.5500 hn         1 A1A       0.323500
     49 H19         -1.4950    -3.4010    -2.0730 hc         1 A1A       0.047200
     50 H20         -2.1050    -3.2970    -0.4330 hc         1 A1A       0.047200
     51 H21         -2.9250    -2.6610    -4.0340 hc         1 A1A       0.031367
     52 H22         -4.5320    -1.9990    -3.7360 hc         1 A1A       0.031367
     53 H23         -3.1100    -1.0300    -3.3950 hc         1 A1A       0.031367
     54 H24         -4.2090    -4.4010    -0.9090 hc         1 A1A       0.031367
     55 H25         -5.2110    -3.9090    -2.2750 hc         1 A1A       0.031367
     56 H26         -3.6610    -4.6990    -2.5590 hc         1 A1A       0.031367
     57 S1          -1.2090     3.1160    -0.4200 s6         1 A1A       1.276600
     58 H28         -1.5910     1.7810     1.5230 h2         1 A1A       0.064700
     59 H29          3.9650     0.1400     1.7790 h1         1 A1A       0.075700
     60 H30          3.7480     0.3340     0.0560 h1         1 A1A       0.075700
     61 H31          6.4310     0.2600     1.4940 hc         1 A1A       0.059700
     62 H32          7.3730     0.2000    -0.6850 hc         1 A1A       0.037200
     63 H33          5.7790     0.3190    -1.4130 hc         1 A1A       0.037200
     64 H34          6.8210     2.5090    -1.9610 hc         1 A1A       0.065700
     65 H35          8.6390     2.9930    -0.0960 ha         1 A1A       0.180000
     66 H37          7.4310     2.9510     2.2570 ha         1 A1A       0.186000
     67 H39          4.8660     2.4380     1.8600 hc         1 A1A       0.083700
     68 H40          5.2340     3.8870    -0.3340 hc         1 A1A       0.063700
     69 H41          4.4040     2.3870    -0.8020 hc         1 A1A       0.063700
     70 H42          3.6420    -0.7070    -1.9030 h1         1 A1A       0.054200
     71 H43          3.5380    -2.3770    -2.4560 h1         1 A1A       0.054200
     72 H44          0.2000    -2.1030     0.1640 hn         1 A1A       0.341500
     73 O9          -2.1350     3.5820    -1.4720 o          1 A1A      -0.683200
     74 O7          -0.5580     4.2260     0.3110 o          1 A1A      -0.683200
     75 O8          -0.2540     2.0900    -0.8770 o          1 A1A      -0.683200
     76 C9          -3.4920    -2.6250    -1.9410 c3         1 A1A      -0.061700
     77 C20          4.4380    -0.0430     0.8130 c3         1 A1A       0.109000
     78 C14         -4.2810     0.8630     1.3370 c3         1 A1A      -0.057400
     79 O3          -6.1110    -0.7750     3.0040 o          1 A1A      -0.557000
     80 C6           1.1480    -1.5510    -1.5490 c          1 A1A       0.652100
     81 C10         -3.5120    -2.0430    -3.3510 c3         1 A1A      -0.088600
     82 C11         -4.1830    -3.9850    -1.9180 c3         1 A1A      -0.088600
@<TRIPOS>BOND
     1     1    18 1   
     2     1    31 1   
     3     2     3 1   
     4     2    13 1   
     5     2    79 2   
     6     3     5 1   
     7     3    32 1   
     8     3    78 1   
     9     4    14 1   
    10     4    18 1   
    11     4    35 1   
    12     4    78 1   
    13     5     6 1   
    14     5    36 1   
    15     5    37 1   
    16     6    13 1   
    17     6    38 1   
    18     6    39 1   
    19     7     9 1   
    20     7    26 1   
    21     7    28 1   
    22     7    40 1   
    23     8    26 1   
    24     8    80 1   
    25     9    10 1   
    26     9    41 1   
    27     9    42 1   
    28    10    11 1   
    29    10    43 1   
    30    10    44 1   
    31    11    16 2   
    32    11    28 1   
    33    12    15 1   
    34    12    17 1   
    35    12    27 1   
    36    12    45 1   
    37    13    47 1   
    38    14    17 1   
    39    14    48 1   
    40    15    49 1   
    41    15    50 1   
    42    15    76 1   
    43    17    29 2   
    44    18    57 1   
    45    18    58 1   
    46    19    20 1   
    47    19    24 1   
    48    19    61 1   
    49    19    77 1   
    50    20    21 1   
    51    20    62 1   
    52    20    63 1   
    53    21    22 1   
    54    21    25 1   
    55    21    64 1   
    56    22    23 2   
    57    22    65 1   
    58    23    24 1   
    59    23    66 1   
    60    24    25 1   
    61    24    67 1   
    62    25    68 1   
    63    25    69 1   
    64    26    70 1   
    65    26    71 1   
    66    27    72 1   
    67    27    80 1   
    68    28    77 1   
    69    30    80 2   
    70    33    78 1   
    71    34    78 1   
    72    46    76 1   
    73    51    81 1   
    74    52    81 1   
    75    53    81 1   
    76    54    82 1   
    77    55    82 1   
    78    56    82 1   
    79    57    73 1   
    80    57    74 1   
    81    57    75 1   
    82    59    77 1   
    83    60    77 1   
    84    76    81 1   
    85    76    82 1   
@<TRIPOS>SUBSTRUCTURE
     1 A1A         1 TEMP              0 ****  ****    0 ROOT
