@<TRIPOS>MOLECULE
A1A
   83    85     1     0     0
SMALL
abcg2


@<TRIPOS>ATOM
      1 C10          1.0820    -1.7500     0.4730 c3         1 A1A       0.040700
      2 C02         -4.6460     0.8470    -2.2970 c          1 A1A       0.569000
      3 C03         -3.9230     2.1030    -2.7290 c5         1 A1A      -0.164400
      4 C04         -2.9950     2.4240    -1.5660 c5         1 A1A      -0.093400
      5 C05         -3.6520     1.7350    -0.3630 c5         1 A1A       0.105700
      6 C06         -2.6680     1.2380     0.6750 c3         1 A1A       0.178600
      7 C08         -0.7720    -0.1710     0.7260 c          1 A1A       0.648100
      8 C11          1.0750    -3.2740     0.3760 c3         1 A1A      -0.073400
      9 C12          2.3850    -3.9700     0.7440 c3         1 A1A      -0.060700
     10 C13          2.8650    -3.6180     2.1480 c3         1 A1A      -0.092600
     11 C14          2.2120    -5.4790     0.6040 c3         1 A1A      -0.092600
     12 C15          2.1350    -1.1310    -0.4520 c          1 A1A       0.590100
     13 C17          4.0910     0.3940    -0.4760 c3         1 A1A       0.105700
     14 C18          4.0920     1.8730    -0.0870 c3         1 A1A      -0.081400
     15 C19          3.1070     2.7820    -0.8360 c5         1 A1A      -0.143700
     16 C20          1.6400     2.4380    -0.6000 c          1 A1A       0.571000
     17 C22          2.1590     4.2140     0.8530 c5         1 A1A       0.103000
     18 C23          3.1900     4.2080    -0.2790 c5         1 A1A      -0.095400
     19 C25          5.4450    -0.2990    -0.2190 c3         1 A1A      -0.090700
     20 C31         -6.1280     0.1630     0.7840 c6         1 A1A      -0.084700
     21 C32         -6.6290    -0.9870     1.6560 c6         1 A1A      -0.070900
     22 C33         -7.6920    -0.5220     2.6450 c6         1 A1A      -0.072900
     23 C34         -8.8520     0.1560     1.9250 c6         1 A1A      -0.074400
     24 C35         -8.3600     1.3080     1.0560 c6         1 A1A      -0.072900
     25 C36         -7.2920     0.8450     0.0700 c6         1 A1A      -0.070900
     26 N09         -0.2180    -1.2340     0.1100 ns         1 A1A      -0.474900
     27 N16          3.0170    -0.3310     0.1660 ns         1 A1A      -0.488900
     28 N21          1.1960     3.2420     0.3820 ns         1 A1A      -0.520900
     29 N29         -4.4360     0.6750    -0.9740 n          1 A1A      -0.399800
     30 O07         -1.8870     0.2060     0.0900 os         1 A1A      -0.451100
     31 O24          0.9760     1.6070    -1.1980 o          1 A1A      -0.562000
     32 O26          5.4220    -1.6310    -0.6200 oh         1 A1A      -0.623000
     33 O27          2.1270    -1.3690    -1.6490 o          1 A1A      -0.615100
     34 O28         -0.3570     0.3530     1.7380 o          1 A1A      -0.555000
     35 H1           1.2610    -1.4580     1.5080 h1         1 A1A       0.093700
     36 H2          -3.4100     1.9530    -3.6780 hc         1 A1A       0.072200
     37 H3          -4.6710     2.8860    -2.8850 hc         1 A1A       0.072200
     38 H4          -2.0040     2.0050    -1.7450 hc         1 A1A       0.072200
     39 H5          -2.8750     3.4910    -1.3930 hc         1 A1A       0.072200
     40 H6          -4.3130     2.4410     0.1570 h1         1 A1A       0.043700
     41 H7          -2.0520     2.0810     0.9940 h1         1 A1A       0.048700
     42 H8          -3.1890     0.8570     1.5580 h1         1 A1A       0.048700
     43 H9           0.2830    -3.6390     1.0370 hc         1 A1A       0.044200
     44 H10          0.7890    -3.5620    -0.6410 hc         1 A1A       0.044200
     45 H11          3.1570    -3.6640     0.0270 hc         1 A1A       0.062700
     46 H12          2.0910    -3.8300     2.8890 hc         1 A1A       0.035200
     47 H13          3.7450    -4.2060     2.4130 hc         1 A1A       0.035200
     48 H14          3.1460    -2.5690     2.2480 hc         1 A1A       0.035200
     49 H15          1.8870    -5.7540    -0.4010 hc         1 A1A       0.035200
     50 H16          3.1460    -6.0030     0.8090 hc         1 A1A       0.035200
     51 H17          1.4630    -5.8500     1.3080 hc         1 A1A       0.035200
     52 H18          3.9300     0.3150    -1.5540 h1         1 A1A       0.071700
     53 H19          3.9460     1.9710     0.9920 hc         1 A1A       0.070700
     54 H20          5.0850     2.2770    -0.2900 hc         1 A1A       0.070700
     55 H21          3.3250     2.7380    -1.9050 hc         1 A1A       0.076700
     56 H22          2.5960     3.9170     1.8100 h1         1 A1A       0.041700
     57 H23          1.6940     5.1910     0.9890 h1         1 A1A       0.041700
     58 H24          4.1880     4.4740     0.0690 hc         1 A1A       0.052700
     59 H25          2.8990     4.9290    -1.0440 hc         1 A1A       0.052700
     60 H26          6.2070     0.2000    -0.8240 h2         1 A1A       0.089700
     61 S1           6.0460    -0.1580     1.5220 s6         1 A1A       1.280600
     62 H28         -4.3110    -0.9120     0.3630 h1         1 A1A       0.063700
     63 H29         -5.5340    -1.0620    -0.8820 h1         1 A1A       0.063700
     64 H30         -5.6630     0.9000     1.4530 hc         1 A1A       0.042700
     65 H31         -7.0510    -1.7690     1.0120 hc         1 A1A       0.043200
     66 H32         -5.7880    -1.4410     2.1880 hc         1 A1A       0.043200
     67 H33         -8.0510    -1.3690     3.2340 hc         1 A1A       0.035950
     68 H34         -7.2420     0.1810     3.3540 hc         1 A1A       0.035950
     69 H35         -9.3610    -0.5800     1.2930 hc         1 A1A       0.035700
     70 H36         -9.5920     0.5120     2.6470 hc         1 A1A       0.035700
     71 H37         -9.1950     1.7610     0.5160 hc         1 A1A       0.035950
     72 H38         -7.9410     2.0920     1.6950 hc         1 A1A       0.035950
     73 H39         -6.9340     1.6960    -0.5160 hc         1 A1A       0.043200
     74 H40         -7.7360     0.1400    -0.6430 hc         1 A1A       0.043200
     75 H41         -0.6020    -1.5230    -0.7780 hn         1 A1A       0.332500
     76 H42          2.9760    -0.2510     1.1710 hn         1 A1A       0.347500
     77 H43          0.2790     3.1360     0.7870 hn         1 A1A       0.319500
     78 H44          4.7980    -2.1190    -0.0720 ho         1 A1A       0.434000
     79 O1           6.6140     1.1980     1.6370 o          1 A1A      -0.684533
     80 O3           4.8540    -0.3640     2.3780 o          1 A1A      -0.684533
     81 O2           7.0500    -1.2250     1.6670 o          1 A1A      -0.684533
     82 C30         -5.0740    -0.3560    -0.1900 c3         1 A1A       0.105000
     83 O01         -5.3240     0.1260    -3.0110 o          1 A1A      -0.565000
@<TRIPOS>BOND
     1     1     8 1   
     2     1    12 1   
     3     1    26 1   
     4     1    35 1   
     5     2     3 1   
     6     2    29 1   
     7     2    83 2   
     8     3     4 1   
     9     3    36 1   
    10     3    37 1   
    11     4     5 1   
    12     4    38 1   
    13     4    39 1   
    14     5     6 1   
    15     5    29 1   
    16     5    40 1   
    17     6    30 1   
    18     6    41 1   
    19     6    42 1   
    20     7    26 1   
    21     7    30 1   
    22     7    34 2   
    23     8     9 1   
    24     8    43 1   
    25     8    44 1   
    26     9    10 1   
    27     9    11 1   
    28     9    45 1   
    29    10    46 1   
    30    10    47 1   
    31    10    48 1   
    32    11    49 1   
    33    11    50 1   
    34    11    51 1   
    35    12    27 1   
    36    12    33 2   
    37    13    14 1   
    38    13    19 1   
    39    13    27 1   
    40    13    52 1   
    41    14    15 1   
    42    14    53 1   
    43    14    54 1   
    44    15    16 1   
    45    15    18 1   
    46    15    55 1   
    47    16    28 1   
    48    16    31 2   
    49    17    18 1   
    50    17    28 1   
    51    17    56 1   
    52    17    57 1   
    53    18    58 1   
    54    18    59 1   
    55    19    32 1   
    56    19    60 1   
    57    19    61 1   
    58    20    21 1   
    59    20    25 1   
    60    20    64 1   
    61    20    82 1   
    62    21    22 1   
    63    21    65 1   
    64    21    66 1   
    65    22    23 1   
    66    22    67 1   
    67    22    68 1   
    68    23    24 1   
    69    23    69 1   
    70    23    70 1   
    71    24    25 1   
    72    24    71 1   
    73    24    72 1   
    74    25    73 1   
    75    25    74 1   
    76    26    75 1   
    77    27    76 1   
    78    28    77 1   
    79    29    82 1   
    80    32    78 1   
    81    61    79 1   
    82    61    80 1   
    83    61    81 1   
    84    62    82 1   
    85    63    82 1   
@<TRIPOS>SUBSTRUCTURE
     1 A1A         1 TEMP              0 ****  ****    0 ROOT
