@<TRIPOS>MOLECULE
A1A
   82    85     1     0     0
SMALL
abcg2


@<TRIPOS>ATOM
      1 C10         -4.0920     3.3140     4.3860 c3         1 A1A      -0.087100
      2 C13         -4.0620    -1.7480    -0.8250 c3         1 A1A      -0.078400
      3 C15         -1.5190    -1.5890    -1.1050 c          1 A1A       0.560000
      4 C21          7.9340    -0.6170    -0.6960 c5         1 A1A      -0.091700
      5 C12         -4.1860    -0.2630    -0.4910 c3         1 A1A       0.115700
      6 C16         -1.7000    -3.8150    -0.3770 c5         1 A1A       0.102000
      7 C19          4.6040    -0.2180    -1.0280 c5         1 A1A       0.099000
      8 C23          8.9890    -1.8450    -2.5110 c5         1 A1A      -0.050500
      9 C6          -1.7700     1.2210     2.0680 c3         1 A1A       0.034700
     10 C7          -2.2560     2.2990     3.0350 c3         1 A1A      -0.074400
     11 C8          -3.6930     2.1160     3.5310 c3         1 A1A      -0.062700
     12 C9          -3.8770     0.8200     4.3160 c3         1 A1A      -0.087100
     13 O4          -6.1890    -0.5170     0.8830 oh         1 A1A      -0.616000
     14 C3           3.4870     0.7460    -0.6110 c5         1 A1A      -0.080700
     15 C2           4.2540     1.8450     0.1240 c5         1 A1A      -0.162400
     16 C14         -2.8310    -2.1320    -1.6630 c5         1 A1A      -0.149700
     17 C17         -2.5990    -3.6440    -1.6050 c5         1 A1A      -0.093400
     18 C1           5.4990     1.1530     0.6380 c          1 A1A       0.558000
     19 C22          7.7670    -0.9320    -2.2060 c5         1 A1A      -0.075400
     20 C24          8.7200    -3.1430    -1.7830 c2         1 A1A      -0.229200
     21 C25          8.8450    -2.9030    -0.4770 c2         1 A1A      -0.231200
     22 C26          9.2010    -1.4410    -0.3190 c5         1 A1A      -0.042500
     23 C18         -5.6080     0.2120    -0.1600 c3         1 A1A      -0.092700
     24 C11         -2.6760     1.1700     0.8360 c          1 A1A       0.575100
     25 C27         10.0420    -1.2240    -1.5840 c5         1 A1A      -0.078400
     26 C4           2.4940     0.0220     0.2810 c3         1 A1A       0.190600
     27 N1          -0.4200     1.4960     1.6290 ns         1 A1A      -0.469900
     28 N2          -3.3380     0.0210     0.6540 ns         1 A1A      -0.494900
     29 N3          -0.9640    -2.5690    -0.3720 ns         1 A1A      -0.526900
     30 N4           5.6160    -0.0230    -0.0090 n          1 A1A      -0.420800
     31 O1           6.2730     1.5800     1.4800 o          1 A1A      -0.561000
     32 O3          -1.0450    -0.4790    -1.2950 o          1 A1A      -0.562000
     33 O5          -2.7630     2.1330     0.0880 o          1 A1A      -0.597100
     34 H1          -4.0000     4.2500     3.8330 hc         1 A1A       0.030867
     35 H2          -5.1250     3.2280     4.7260 hc         1 A1A       0.030867
     36 H3          -3.4560     3.3860     5.2720 hc         1 A1A       0.030867
     37 H4          -4.0760    -2.3310     0.1010 hc         1 A1A       0.071200
     38 H5          -4.9360    -2.0690    -1.3880 hc         1 A1A       0.071200
     39 H6           8.1790     0.4410    -0.5660 hc         1 A1A       0.065700
     40 H7          -3.8240     0.3340    -1.3300 h1         1 A1A       0.110700
     41 H8          -2.2800    -3.9420     0.5420 h1         1 A1A       0.034200
     42 H9          -1.0280    -4.6680    -0.4660 h1         1 A1A       0.034200
     43 H10          4.2800    -1.2620    -1.0520 h1         1 A1A       0.048700
     44 H11          4.9840     0.0300    -2.0230 h1         1 A1A       0.048700
     45 H12          9.2360    -1.9280    -3.5680 hc         1 A1A       0.069700
     46 H13         -1.7560     0.2580     2.5780 h1         1 A1A       0.078700
     47 H14         -1.5780     2.3130     3.8940 hc         1 A1A       0.050200
     48 H15         -2.1660     3.2740     2.5470 hc         1 A1A       0.050200
     49 H16         -4.3640     2.0890     2.6640 hc         1 A1A       0.069700
     50 H17         -3.1970     0.7860     5.1710 hc         1 A1A       0.030867
     51 H18         -4.8950     0.7440     4.7000 hc         1 A1A       0.030867
     52 H19         -3.6940    -0.0700     3.7130 hc         1 A1A       0.030867
     53 H20         -5.8530    -0.1720     1.7170 ho         1 A1A       0.406000
     54 H21          2.9630     1.1270    -1.4890 hc         1 A1A       0.086700
     55 H22          4.5590     2.6400    -0.5620 hc         1 A1A       0.083200
     56 H23          3.7020     2.3210     0.9350 hc         1 A1A       0.083200
     57 H24         -2.9690    -1.7640    -2.6820 hc         1 A1A       0.095700
     58 H25         -2.0670    -3.9800    -2.4970 hc         1 A1A       0.054700
     59 H26         -3.5220    -4.2180    -1.5300 hc         1 A1A       0.054700
     60 H27          6.8270    -1.4360    -2.4370 hc         1 A1A       0.045700
     61 H28          7.8010    -0.0220    -2.8080 hc         1 A1A       0.045700
     62 H29          8.3740    -4.0550    -2.2500 ha         1 A1A       0.189000
     63 H31          8.6260    -3.5830     0.3360 ha         1 A1A       0.190000
     64 H33          9.6440    -1.1530     0.6340 hc         1 A1A       0.074700
     65 H34         -5.5390     1.2810     0.0830 h2         1 A1A       0.065700
     66 H36          6.3680    -1.9410    -0.0050 h1         1 A1A       0.057200
     67 H37          7.0200    -0.8800     1.2330 h1         1 A1A       0.057200
     68 H38         10.9830    -1.7770    -1.5720 hc         1 A1A       0.050700
     69 H39         10.2440    -0.1710    -1.7960 hc         1 A1A       0.050700
     70 H40          2.0360    -0.8030    -0.2710 h1         1 A1A       0.051700
     71 H41          2.9960    -0.3950     1.1600 h1         1 A1A       0.051700
     72 H42         -0.2770     2.3750     1.1520 hn         1 A1A       0.333500
     73 H43         -3.1920    -0.7230     1.3200 hn         1 A1A       0.301500
     74 H44         -0.1620    -2.3990     0.2160 hn         1 A1A       0.330500
     75 C5           0.4690     0.5070     1.3890 c          1 A1A       0.657100
     76 C20          6.7280    -0.9270     0.1820 c3         1 A1A       0.121000
     77 S1          -6.7740     0.1630    -1.5700 s6         1 A1A       1.318600
     78 O2           1.4980     0.9620     0.6710 os         1 A1A      -0.455100
     79 O6           0.3770    -0.6330     1.7960 o          1 A1A      -0.570000
     80 O8          -7.1030    -1.2560    -1.8080 o          1 A1A      -0.679867
     81 O9          -7.9340     0.9520    -1.1190 o          1 A1A      -0.679867
     82 O7          -6.0330     0.7930    -2.6790 o          1 A1A      -0.679867
@<TRIPOS>BOND
     1     1    11 1   
     2     1    34 1   
     3     1    35 1   
     4     1    36 1   
     5     2     5 1   
     6     2    16 1   
     7     2    37 1   
     8     2    38 1   
     9     3    16 1   
    10     3    29 1   
    11     3    32 2   
    12     4    19 1   
    13     4    22 1   
    14     4    39 1   
    15     4    76 1   
    16     5    23 1   
    17     5    28 1   
    18     5    40 1   
    19     6    17 1   
    20     6    29 1   
    21     6    41 1   
    22     6    42 1   
    23     7    14 1   
    24     7    30 1   
    25     7    43 1   
    26     7    44 1   
    27     8    19 1   
    28     8    20 1   
    29     8    25 1   
    30     8    45 1   
    31     9    10 1   
    32     9    24 1   
    33     9    27 1   
    34     9    46 1   
    35    10    11 1   
    36    10    47 1   
    37    10    48 1   
    38    11    12 1   
    39    11    49 1   
    40    12    50 1   
    41    12    51 1   
    42    12    52 1   
    43    13    23 1   
    44    13    53 1   
    45    14    15 1   
    46    14    26 1   
    47    14    54 1   
    48    15    18 1   
    49    15    55 1   
    50    15    56 1   
    51    16    17 1   
    52    16    57 1   
    53    17    58 1   
    54    17    59 1   
    55    18    30 1   
    56    18    31 2   
    57    19    60 1   
    58    19    61 1   
    59    20    21 2   
    60    20    62 1   
    61    21    22 1   
    62    21    63 1   
    63    22    25 1   
    64    22    64 1   
    65    23    65 1   
    66    23    77 1   
    67    24    28 1   
    68    24    33 2   
    69    25    68 1   
    70    25    69 1   
    71    26    70 1   
    72    26    71 1   
    73    26    78 1   
    74    27    72 1   
    75    27    75 1   
    76    28    73 1   
    77    29    74 1   
    78    30    76 1   
    79    66    76 1   
    80    67    76 1   
    81    75    78 1   
    82    75    79 2   
    83    77    80 1   
    84    77    81 1   
    85    77    82 1   
@<TRIPOS>SUBSTRUCTURE
     1 A1A         1 TEMP              0 ****  ****    0 ROOT
