@<TRIPOS>MOLECULE
A1A
   34    36     1     0     0
SMALL
abcg2


@<TRIPOS>ATOM
      1 C4          25.0060   -42.6800     5.1140 ca         1 A1A      -0.085600
      2 C7          22.6920   -43.9660     6.1150 ca         1 A1A       0.180000
      3 C6          22.8380   -43.7470     4.7730 ca         1 A1A      -0.080000
      4 C20         20.8060   -41.7720     8.3430 ca         1 A1A       0.004000
      5 C8          23.7060   -43.5380     7.0140 ca         1 A1A       0.238000
      6 C18         21.3320   -39.5200     7.6810 ca         1 A1A       0.164000
      7 C16         20.6700   -41.1210     6.0180 ca         1 A1A       0.010000
      8 C19         21.2080   -40.4900     8.6740 ca         1 A1A       0.093000
      9 C1          25.5720   -42.7210     8.8160 ca         1 A1A      -0.214000
     10 C2          25.8170   -42.4980     7.4890 ca         1 A1A      -0.005000
     11 C3          24.8750   -42.9110     6.5150 ca         1 A1A      -0.047000
     12 C5          23.9810   -43.0840     4.2930 ca         1 A1A      -0.118000
     13 N9          23.4860   -43.7630     8.3280 nb         1 A1A      -0.735000
     14 C10         24.3830   -43.3700     9.1910 ca         1 A1A       0.357900
     15 N11         21.5510   -44.5840     6.6710 nu         1 A1A      -0.809100
     16 S12         20.1100   -43.7450     6.6030 sy         1 A1A       1.120600
     17 O13         19.2830   -44.3040     7.6550 o          1 A1A      -0.550500
     18 O14         19.6450   -43.7500     5.2310 o          1 A1A      -0.550500
     19 C15         20.5430   -42.0740     7.0170 ca         1 A1A      -0.281500
     20 C17         21.0630   -39.8380     6.3590 ca         1 A1A      -0.116000
     21 C23         26.2390   -42.0370     4.4730 c          1 A1A       0.715600
     22 O24         26.0350   -41.3990     3.4260 o          1 A1A      -0.705000
     23 O25         27.3310   -42.2330     5.0380 o          1 A1A      -0.705000
     24 H29         22.0810   -44.0780     4.0750 ha         1 A1A       0.126000
     25 H34         20.7100   -42.5180     9.1210 ha         1 A1A       0.146000
     26 H32         20.4680   -41.3600     4.9840 ha         1 A1A       0.149000
     27 H26         26.2770   -42.4100     9.5750 ha         1 A1A       0.111000
     28 H27         26.7280   -42.0130     7.1750 ha         1 A1A       0.168000
     29 H28         24.0590   -42.9030     3.2290 ha         1 A1A       0.138000
     30 H30         24.1740   -43.5640    10.2380 h4         1 A1A       0.000100
     31 H31         21.7340   -44.8630     7.6350 hn         1 A1A       0.503000
     32 H33         21.1640   -39.0820     5.5930 ha         1 A1A       0.136000
     33 CL21        21.5570   -40.1160    10.3140 cl         1 A1A      -0.183000
     34 CL22        21.8160   -37.9240     8.0830 cl         1 A1A      -0.175000
@<TRIPOS>BOND
     1     1    11 ar  
     2     1    12 ar  
     3     1    21 1   
     4     2     3 ar  
     5     2     5 ar  
     6     2    15 1   
     7     3    12 ar  
     8     3    24 1   
     9     4     8 ar  
    10     4    19 ar  
    11     4    25 1   
    12     5    11 ar  
    13     5    13 ar  
    14     6     8 ar  
    15     6    20 ar  
    16     6    34 1   
    17     7    19 ar  
    18     7    20 ar  
    19     7    26 1   
    20     8    33 1   
    21     9    10 ar  
    22     9    14 ar  
    23     9    27 1   
    24    10    11 ar  
    25    10    28 1   
    26    12    29 1   
    27    13    14 ar  
    28    14    30 1   
    29    15    16 1   
    30    15    31 1   
    31    16    17 2   
    32    16    18 2   
    33    16    19 1   
    34    20    32 1   
    35    21    22 1   
    36    21    23 1   
@<TRIPOS>SUBSTRUCTURE
     1 A1A         1 TEMP              0 ****  ****    0 ROOT
