@<TRIPOS>MOLECULE
A1A
   61    62     1     0     0
SMALL
abcg2


@<TRIPOS>ATOM
      1 C18          0.6560   -59.4030     5.0490 c3         1 A1A       0.183800
      2 C19          1.3490   -58.0740     4.7630 c3         1 A1A      -0.162400
      3 C20          0.7830   -57.3830     3.5420 c          1 A1A       0.598100
      4 C22          1.8490   -63.3200     7.8820 c          1 A1A       0.604100
      5 C17          0.4730   -61.3080     8.2560 c6         1 A1A      -0.080400
      6 C16          0.1540   -60.9710     6.8080 c6         1 A1A       0.171300
      7 C14          2.4240   -60.4710     6.3070 c6         1 A1A       0.171300
      8 C13          2.8610   -60.9240     7.6950 c6         1 A1A      -0.080400
      9 C12          1.8930   -61.8790     8.4130 c6         1 A1A       0.093400
     10 C11          1.8200   -60.0060    11.2030 ca         1 A1A      -0.108500
     11 C10          1.0660   -59.3510    12.1660 ca         1 A1A      -0.107500
     12 C01          3.1860   -64.1590    12.2150 c3         1 A1A      -0.083100
     13 C02          3.7270   -62.8540    11.6300 c3         1 A1A      -0.149400
     14 C06          1.4950   -61.3060    10.8330 ca         1 A1A      -0.049000
     15 C07          0.4130   -61.9450    11.4240 ca         1 A1A      -0.108500
     16 C08         -0.3400   -61.2880    12.3870 ca         1 A1A      -0.107500
     17 C09         -0.0140   -59.9910    12.7600 ca         1 A1A      -0.106000
     18 C25          2.4210   -64.7840     6.1420 c3         1 A1A       0.152900
     19 C28         -1.3770   -55.0400     2.6560 c3         1 A1A       0.124800
     20 N05          2.2620   -61.9810     9.8420 n          1 A1A      -0.244400
     21 N15          1.0670   -59.9570     6.3240 n3         1 A1A      -0.738600
     22 N26          0.6490   -56.0500     3.6550 ns         1 A1A      -0.510900
     23 N29         -1.8120   -54.1330     1.6070 n8         1 A1A      -0.993200
     24 O04          3.9800   -63.3290     9.3140 o          1 A1A      -0.601100
     25 O21          0.4990   -57.9980     2.5220 o          1 A1A      -0.601100
     26 O24          2.4620   -63.4840     6.7270 os         1 A1A      -0.423100
     27 H1          -0.4230   -59.2300     5.0980 h1         1 A1A       0.046200
     28 H2           0.8250   -60.1040     4.2170 h1         1 A1A       0.046200
     29 H3           2.4170   -58.2260     4.5790 hc         1 A1A       0.062700
     30 H4           1.2740   -57.4380     5.6470 hc         1 A1A       0.062700
     31 H5           0.4000   -60.3810     8.8260 hc         1 A1A       0.065450
     32 H6          -0.2720   -61.9950     8.6600 hc         1 A1A       0.065450
     33 H7          -0.8640   -60.5770     6.7700 h1         1 A1A       0.040200
     34 H8           0.1580   -61.8770     6.1760 h1         1 A1A       0.040200
     35 H9           2.5370   -61.2790     5.5700 h1         1 A1A       0.040200
     36 H10          3.1090   -59.6780     5.9990 h1         1 A1A       0.040200
     37 H11          3.8640   -61.3460     7.6400 hc         1 A1A       0.065450
     38 H12          2.9260   -60.0320     8.3240 hc         1 A1A       0.065450
     39 H13          2.6670   -59.5130    10.7430 ha         1 A1A       0.129000
     40 H14          1.3240   -58.3400    12.4540 ha         1 A1A       0.118000
     41 H15          3.5230   -64.2760    13.2450 hc         1 A1A       0.042700
     42 H16          2.0960   -64.1760    12.2190 hc         1 A1A       0.042700
     43 H17          3.5360   -65.0220    11.6490 hc         1 A1A       0.042700
     44 H18          4.8170   -62.8600    11.6760 hc         1 A1A       0.064200
     45 H19          3.3840   -62.0110    12.2260 hc         1 A1A       0.064200
     46 H20          0.1630   -62.9550    11.1230 ha         1 A1A       0.129000
     47 H21         -1.1820   -61.7910    12.8450 ha         1 A1A       0.118000
     48 H22         -0.6010   -59.4790    13.5110 ha         1 A1A       0.116000
     49 H23          2.9740   -64.7100     5.2110 h1         1 A1A       0.048033
     50 H24          2.8970   -65.5230     6.7880 h1         1 A1A       0.048033
     51 H25          1.3990   -65.0960     5.9320 h1         1 A1A       0.048033
     52 H26          0.4350   -55.5990     1.6360 h1         1 A1A       0.061700
     53 H27          0.6150   -54.2210     2.7090 h1         1 A1A       0.061700
     54 H28         -1.6670   -54.7260     3.6680 h1         1 A1A       0.034700
     55 H29         -1.8400   -56.0150     2.4870 h1         1 A1A       0.034700
     56 H31          0.8550   -55.6210     4.5420 hn         1 A1A       0.310500
     57 H32         -2.8220   -54.1170     1.5690 hn         1 A1A       0.394000
     58 H33         -1.5320   -53.1880     1.8410 hn         1 A1A       0.394000
     59 O23          1.2320   -64.1910     8.4420 o          1 A1A      -0.496000
     60 C03          3.3490   -62.7280    10.1720 c          1 A1A       0.611100
     61 C27          0.1390   -55.1990     2.6050 c3         1 A1A       0.101000
@<TRIPOS>BOND
     1     1     2 1   
     2     1    21 1   
     3     1    27 1   
     4     1    28 1   
     5     2     3 1   
     6     2    29 1   
     7     2    30 1   
     8     3    22 1   
     9     3    25 2   
    10     4     9 1   
    11     4    26 1   
    12     4    59 2   
    13     5     6 1   
    14     5     9 1   
    15     5    31 1   
    16     5    32 1   
    17     6    21 1   
    18     6    33 1   
    19     6    34 1   
    20     7     8 1   
    21     7    21 1   
    22     7    35 1   
    23     7    36 1   
    24     8     9 1   
    25     8    37 1   
    26     8    38 1   
    27     9    20 1   
    28    10    11 ar  
    29    10    14 ar  
    30    10    39 1   
    31    11    17 ar  
    32    11    40 1   
    33    12    13 1   
    34    12    41 1   
    35    12    42 1   
    36    12    43 1   
    37    13    44 1   
    38    13    45 1   
    39    13    60 1   
    40    14    15 ar  
    41    14    20 1   
    42    15    16 ar  
    43    15    46 1   
    44    16    17 ar  
    45    16    47 1   
    46    17    48 1   
    47    18    26 1   
    48    18    49 1   
    49    18    50 1   
    50    18    51 1   
    51    19    23 1   
    52    19    54 1   
    53    19    55 1   
    54    19    61 1   
    55    20    60 1   
    56    22    56 1   
    57    22    61 1   
    58    23    57 1   
    59    23    58 1   
    60    24    60 2   
    61    52    61 1   
    62    53    61 1   
@<TRIPOS>SUBSTRUCTURE
     1 A1A         1 TEMP              0 ****  ****    0 ROOT
