@<TRIPOS>MOLECULE
A1A
   31    33     1     0     0
SMALL
abcg2


@<TRIPOS>ATOM
      1 C01        124.9060   122.2680   119.3380 c5         1 A1A      -0.107000
      2 C03        124.1960   122.1490   117.0770 ca         1 A1A       0.035000
      3 C04        123.4240   121.7250   116.0020 ca         1 A1A      -0.115000
      4 C05        124.0300   121.6240   114.7580 ca         1 A1A      -0.038000
      5 C06        125.3750   121.9280   114.5640 ca         1 A1A      -0.144000
      6 C07        126.1490   122.3460   115.6340 ca         1 A1A       0.030000
      7 C08        125.5370   122.4420   116.8700 ca         1 A1A      -0.306500
      8 C14        122.1580   122.5720   120.2080 ca         1 A1A      -0.186600
      9 C15        121.3890   123.5830   120.7760 ca         1 A1A      -0.015500
     10 C16        120.9740   123.4770   122.0860 ca         1 A1A       0.033000
     11 C17        121.2760   122.3540   122.8630 ca         1 A1A       0.191100
     12 C18        122.0210   121.3390   122.2580 ca         1 A1A       0.033000
     13 C19        122.4660   121.4410   120.9540 ca         1 A1A      -0.015500
     14 N02        123.7860   122.2640   118.4210 n          1 A1A      -0.215400
     15 O13        121.7310   123.0970   117.9520 o          1 A1A      -0.538100
     16 O21        120.8360   122.3180   124.1140 oh         1 A1A      -0.499100
     17 S09        126.2630   123.0010   118.3710 sy         1 A1A       1.043500
     18 CL20       122.3730   119.9170   123.1760 cl         1 A1A      -0.170500
     19 CL22       120.0500   124.7420   122.8040 cl         1 A1A      -0.170500
     20 H1         124.7350   122.8750   120.2250 h2         1 A1A       0.109700
     21 H2         125.2210   121.2610   119.6150 h2         1 A1A       0.109700
     22 H4         122.3850   121.4620   116.1190 ha         1 A1A       0.142000
     23 H5         123.4370   121.2860   113.9180 ha         1 A1A       0.121000
     24 H6         125.8170   121.8280   113.5820 ha         1 A1A       0.124000
     25 H7         127.1980   122.5810   115.5120 ha         1 A1A       0.131000
     26 H8         121.1250   124.4610   120.2020 ha         1 A1A       0.147500
     27 H9         123.0240   120.6200   120.5240 ha         1 A1A       0.147500
     28 H11        121.1170   121.5130   124.5710 ho         1 A1A       0.489000
     29 C12        122.5200   122.6840   118.7720 c          1 A1A       0.641700
     30 O10        127.5200   122.3300   118.6610 o          1 A1A      -0.503000
     31 O11        126.2050   124.4540   118.4320 o          1 A1A      -0.503000
@<TRIPOS>BOND
     1     1    14 1   
     2     1    17 1   
     3     1    20 1   
     4     1    21 1   
     5     2     3 ar  
     6     2     7 ar  
     7     2    14 1   
     8     3     4 ar  
     9     3    22 1   
    10     4     5 ar  
    11     4    23 1   
    12     5     6 ar  
    13     5    24 1   
    14     6     7 ar  
    15     6    25 1   
    16     7    17 1   
    17     8     9 ar  
    18     8    13 ar  
    19     8    29 1   
    20     9    10 ar  
    21     9    26 1   
    22    10    11 ar  
    23    10    19 1   
    24    11    12 ar  
    25    11    16 1   
    26    12    13 ar  
    27    12    18 1   
    28    13    27 1   
    29    14    29 1   
    30    15    29 2   
    31    16    28 1   
    32    17    30 2   
    33    17    31 2   
@<TRIPOS>SUBSTRUCTURE
     1 A1A         1 TEMP              0 ****  ****    0 ROOT
