@<TRIPOS>MOLECULE
A1A
  133   133     1     0     0
SMALL
abcg2


@<TRIPOS>ATOM
      1 C11          5.5850     1.5460     2.1750 c3         1 A1A      -0.070400
      2 C12          5.2400     0.4700     3.1970 c3         1 A1A      -0.075400
      3 C14          3.3260    -0.9470     4.1310 c3         1 A1A      -0.067400
      4 C16          1.3300    -2.3980     4.7310 c          1 A1A       0.615100
      5 C19         -0.3850    -4.0300     4.5750 c3         1 A1A       0.173600
      6 C20         -1.3340    -4.5220     3.4980 c3         1 A1A       0.156300
      7 C21         -0.6620    -5.1860     2.3070 c3         1 A1A       0.222600
      8 O22          0.1820    -4.3110     1.6010 os         1 A1A      -0.578400
      9 O35          5.1360     0.0600    -2.3170 oh         1 A1A      -0.737000
     10 C41         -3.9430    -2.2280     2.2430 c3         1 A1A      -0.142400
     11 C44         -7.2830    -0.8960     0.7690 c3         1 A1A      -0.073400
     12 C45         -7.7540     0.5030     0.3940 c3         1 A1A      -0.075400
     13 C47         -9.6200     1.9520    -0.5360 c3         1 A1A      -0.074400
     14 C48        -11.0360     2.0110    -1.0970 c3         1 A1A      -0.074400
     15 C49        -11.4710     3.4210    -1.4720 c3         1 A1A      -0.074400
     16 C28          4.3570    -2.2230     0.5060 c6         1 A1A       0.163300
     17 C29          5.1330    -1.6360    -0.6650 c6         1 A1A       0.120800
     18 C10          7.0670     1.6430     1.8350 c3         1 A1A      -0.074400
     19 C13          3.7350     0.3130     3.3780 c3         1 A1A      -0.075400
     20 C15          1.8110    -1.1100     4.1210 c3         1 A1A      -0.128400
     21 C27          2.9580    -2.6580     0.0840 c6         1 A1A       0.255300
     22 C30          4.3690    -0.4570    -1.2500 c6         1 A1A       0.092300
     23 C31          2.9830    -0.8940    -1.7210 c6         1 A1A       0.120800
     24 C32          2.2050    -1.4950    -0.5530 c6         1 A1A       0.163300
     25 C42         -5.3600    -2.2940     1.6970 c3         1 A1A      -0.065400
     26 C43         -5.8630    -0.9050     1.3210 c3         1 A1A      -0.077400
     27 C46         -9.1720     0.5450    -0.1620 c3         1 A1A      -0.074400
     28 O17          1.8420    -2.9530     5.6720 o          1 A1A      -0.501000
     29 O18          0.2350    -2.8330     4.1230 os         1 A1A      -0.413100
     30 O24          2.0650    -5.4610     0.2760 o          1 A1A      -0.820500
     31 O25          2.3020    -5.0620     2.8370 o          1 A1A      -0.820500
     32 O26          2.2530    -3.0770     1.2300 os         1 A1A      -0.586400
     33 O33          0.9410    -1.9670    -0.9460 oh         1 A1A      -0.668500
     34 O34          3.0620    -1.8440    -2.7550 oh         1 A1A      -0.707500
     35 O36          6.3990    -1.2540    -0.1780 oh         1 A1A      -0.707500
     36 O37          5.0090    -3.3400     1.0560 oh         1 A1A      -0.668500
     37 O38         -2.1150    -3.3920     3.0970 os         1 A1A      -0.422100
     38 O40         -3.8990    -4.6250     2.5420 o          1 A1A      -0.514000
     39 P23          1.7980    -4.6300     1.4940 p5         1 A1A       1.413800
     40 H1           5.0320     1.3280     1.2550 hc         1 A1A       0.028700
     41 H2           5.2180     2.5190     2.5170 hc         1 A1A       0.028700
     42 H3           5.6640    -0.4830     2.8620 hc         1 A1A       0.043700
     43 H4           5.7160     0.6900     4.1590 hc         1 A1A       0.043700
     44 H5           3.7880    -1.8150     3.6520 hc         1 A1A       0.063200
     45 H6           3.7020    -0.9180     5.1550 hc         1 A1A       0.063200
     46 H7          -0.9370    -3.8260     5.4970 h1         1 A1A       0.057200
     47 H8           0.3510    -4.8070     4.7820 h1         1 A1A       0.057200
     48 H9          -1.9730    -5.2820     3.9620 h1         1 A1A       0.046700
     49 H10         -0.1340    -6.0660     2.6920 h1         1 A1A       0.032200
     50 H11         -1.4340    -5.5600     1.6270 h1         1 A1A       0.032200
     51 H12          4.8410     0.9560    -2.5070 ho         1 A1A       0.500000
     52 H13         -3.9040    -1.5710     3.1180 hc         1 A1A       0.070700
     53 H14         -3.2760    -1.7680     1.5070 hc         1 A1A       0.070700
     54 H15         -7.9660    -1.3250     1.5100 hc         1 A1A       0.038700
     55 H16         -7.3380    -1.5480    -0.1100 hc         1 A1A       0.038700
     56 H17         -7.6920     1.1530     1.2740 hc         1 A1A       0.035700
     57 H18         -7.0660     0.9290    -0.3450 hc         1 A1A       0.035700
     58 H19         -8.9240     2.3690    -1.2720 hc         1 A1A       0.036200
     59 H20         -9.5530     2.5990     0.3440 hc         1 A1A       0.036200
     60 H21        -11.1050     1.3630    -1.9780 hc         1 A1A       0.037200
     61 H22        -11.7350     1.5980    -0.3610 hc         1 A1A       0.037200
     62 H23        -11.4030     4.0690    -0.5910 hc         1 A1A       0.036700
     63 H24        -10.7690     3.8340    -2.2050 hc         1 A1A       0.036700
     64 H26          4.2440    -1.4310     1.2640 h1         1 A1A       0.030700
     65 H27          5.2410    -2.4100    -1.4390 h1         1 A1A       0.038200
     66 H28          7.6190     2.0750     2.6760 hc         1 A1A       0.042200
     67 H29          7.4700     0.6360     1.6880 hc         1 A1A       0.042200
     68 H31          3.3270     1.1960     3.8820 hc         1 A1A       0.028700
     69 H32          3.2640     0.2920     2.3880 hc         1 A1A       0.028700
     70 H33          1.3460    -0.2910     4.6810 hc         1 A1A       0.062200
     71 H34          1.4370    -1.0320     3.1000 hc         1 A1A       0.062200
     72 H35          3.0410    -3.4760    -0.6410 h1         1 A1A       0.102700
     73 H36          4.2380     0.3000    -0.4630 h1         1 A1A       0.044700
     74 H37          2.4400     0.0050    -2.0610 h1         1 A1A       0.038200
     75 H38          2.1080    -0.7020     0.2070 h1         1 A1A       0.030700
     76 H39         -5.3950    -2.9460     0.8200 hc         1 A1A       0.050700
     77 H40         -6.0280    -2.7370     2.4410 hc         1 A1A       0.050700
     78 H41         -5.1870    -0.4650     0.5810 hc         1 A1A       0.035700
     79 H42         -5.8140    -0.2530     2.2000 hc         1 A1A       0.035700
     80 H43         -9.2380    -0.1040    -1.0420 hc         1 A1A       0.036700
     81 H44         -9.8640     0.1260     0.5760 hc         1 A1A       0.036700
     82 H46          0.4000    -1.2140    -1.2040 ho         1 A1A       0.490000
     83 H47          3.6450    -1.4870    -3.4340 ho         1 A1A       0.502000
     84 H48          6.8990    -0.8640    -0.9020 ho         1 A1A       0.502000
     85 H49          5.8660    -3.0520     1.3860 ho         1 A1A       0.490000
     86 C1           7.3170     2.4610     0.5730 c3         1 A1A      -0.073400
     87 C2           8.7880     2.6010     0.2080 c3         1 A1A      -0.074400
     88 C3           9.0050     3.3770    -1.0850 c3         1 A1A      -0.074400
     89 C4          10.4710     3.5280    -1.4670 c3         1 A1A      -0.074400
     90 C5          10.6760     4.3000    -2.7640 c3         1 A1A      -0.074400
     91 C6          12.1400     4.4470    -3.1550 c3         1 A1A      -0.074400
     92 C7          12.3420     5.2170    -4.4540 c3         1 A1A      -0.075400
     93 C8          13.8060     5.3570    -4.8510 c3         1 A1A      -0.075400
     94 C9          13.9960     6.1260    -6.1510 c3         1 A1A      -0.088100
     95 C17        -12.8840     3.4890    -2.0390 c3         1 A1A      -0.074400
     96 C18        -13.3110     4.9010    -2.4170 c3         1 A1A      -0.074400
     97 C22        -14.7210     4.9720    -2.9890 c3         1 A1A      -0.074400
     98 C23        -15.1450     6.3850    -3.3700 c3         1 A1A      -0.075400
     99 C24        -16.5530     6.4580    -3.9460 c3         1 A1A      -0.075400
    100 C25        -16.9640     7.8740    -4.3240 c3         1 A1A      -0.088100
    101 H25          6.7850     1.9880    -0.2610 hc         1 A1A       0.032700
    102 H30          6.8750     3.4570     0.6860 hc         1 A1A       0.032700
    103 H50          9.3220     3.0970     1.0260 hc         1 A1A       0.037700
    104 H51          9.2360     1.6050     0.1130 hc         1 A1A       0.037700
    105 H52          8.4690     2.8760    -1.8990 hc         1 A1A       0.035200
    106 H53          8.5510     4.3700    -0.9920 hc         1 A1A       0.035200
    107 H54         11.0080     4.0320    -0.6550 hc         1 A1A       0.036700
    108 H55         10.9260     2.5350    -1.5600 hc         1 A1A       0.036700
    109 H56         10.1340     3.7980    -3.5730 hc         1 A1A       0.036200
    110 H57         10.2240     5.2940    -2.6690 hc         1 A1A       0.036200
    111 H58         12.6830     4.9500    -2.3470 hc         1 A1A       0.036700
    112 H59         12.5920     3.4530    -3.2480 hc         1 A1A       0.036700
    113 H60         11.7960     4.7170    -5.2610 hc         1 A1A       0.036700
    114 H61         11.8950     6.2130    -4.3590 hc         1 A1A       0.036700
    115 H62         14.3530     5.8580    -4.0460 hc         1 A1A       0.035700
    116 H63         14.2520     4.3620    -4.9450 hc         1 A1A       0.035700
    117 H64         13.4880     5.6300    -6.9800 hc         1 A1A       0.029700
    118 H65         13.5890     7.1360    -6.0740 hc         1 A1A       0.029700
    119 H66         15.0500     6.2150    -6.4150 hc         1 A1A       0.029700
    120 H67        -12.9530     2.8410    -2.9190 hc         1 A1A       0.037200
    121 H68        -13.5880     3.0800    -1.3060 hc         1 A1A       0.037200
    122 H69        -13.2450     5.5490    -1.5350 hc         1 A1A       0.036700
    123 H70        -12.6040     5.3110    -3.1470 hc         1 A1A       0.036700
    124 H71        -14.7880     4.3240    -3.8700 hc         1 A1A       0.036700
    125 H72        -15.4300     4.5650    -2.2590 hc         1 A1A       0.036700
    126 H73        -15.0800     7.0330    -2.4890 hc         1 A1A       0.036700
    127 H74        -14.4360     6.7930    -4.0980 hc         1 A1A       0.036700
    128 H75        -16.6180     5.8090    -4.8250 hc         1 A1A       0.036200
    129 H76        -17.2630     6.0520    -3.2190 hc         1 A1A       0.036200
    130 H77        -16.9260     8.5380    -3.4580 hc         1 A1A       0.030367
    131 H78        -16.2980     8.2880    -5.0830 hc         1 A1A       0.030367
    132 H79        -17.9790     7.9070    -4.7210 hc         1 A1A       0.030367
    133 C39         -3.3500    -3.5560     2.6310 c          1 A1A       0.603100
@<TRIPOS>BOND
     1     1     2 1   
     2     1    18 1   
     3     1    40 1   
     4     1    41 1   
     5     2    19 1   
     6     2    42 1   
     7     2    43 1   
     8     3    19 1   
     9     3    20 1   
    10     3    44 1   
    11     3    45 1   
    12     4    20 1   
    13     4    28 2   
    14     4    29 1   
    15     5     6 1   
    16     5    29 1   
    17     5    46 1   
    18     5    47 1   
    19     6     7 1   
    20     6    37 1   
    21     6    48 1   
    22     7     8 1   
    23     7    49 1   
    24     7    50 1   
    25     8    39 1   
    26     9    22 1   
    27     9    51 1   
    28    10    25 1   
    29    10    52 1   
    30    10    53 1   
    31    10   133 1   
    32    11    12 1   
    33    11    26 1   
    34    11    54 1   
    35    11    55 1   
    36    12    27 1   
    37    12    56 1   
    38    12    57 1   
    39    13    14 1   
    40    13    27 1   
    41    13    58 1   
    42    13    59 1   
    43    14    15 1   
    44    14    60 1   
    45    14    61 1   
    46    15    62 1   
    47    15    63 1   
    48    15    95 1   
    49    16    17 1   
    50    16    21 1   
    51    16    36 1   
    52    16    64 1   
    53    17    22 1   
    54    17    35 1   
    55    17    65 1   
    56    18    66 1   
    57    18    67 1   
    58    18    86 1   
    59    19    68 1   
    60    19    69 1   
    61    20    70 1   
    62    20    71 1   
    63    21    24 1   
    64    21    32 1   
    65    21    72 1   
    66    22    23 1   
    67    22    73 1   
    68    23    24 1   
    69    23    34 1   
    70    23    74 1   
    71    24    33 1   
    72    24    75 1   
    73    25    26 1   
    74    25    76 1   
    75    25    77 1   
    76    26    78 1   
    77    26    79 1   
    78    27    80 1   
    79    27    81 1   
    80    30    39 1   
    81    31    39 1   
    82    32    39 1   
    83    33    82 1   
    84    34    83 1   
    85    35    84 1   
    86    36    85 1   
    87    37   133 1   
    88    38   133 2   
    89    86    87 1   
    90    86   101 1   
    91    86   102 1   
    92    87    88 1   
    93    87   103 1   
    94    87   104 1   
    95    88    89 1   
    96    88   105 1   
    97    88   106 1   
    98    89    90 1   
    99    89   107 1   
   100    89   108 1   
   101    90    91 1   
   102    90   109 1   
   103    90   110 1   
   104    91    92 1   
   105    91   111 1   
   106    91   112 1   
   107    92    93 1   
   108    92   113 1   
   109    92   114 1   
   110    93    94 1   
   111    93   115 1   
   112    93   116 1   
   113    94   117 1   
   114    94   118 1   
   115    94   119 1   
   116    95    96 1   
   117    95   120 1   
   118    95   121 1   
   119    96    97 1   
   120    96   122 1   
   121    96   123 1   
   122    97    98 1   
   123    97   124 1   
   124    97   125 1   
   125    98    99 1   
   126    98   126 1   
   127    98   127 1   
   128    99   100 1   
   129    99   128 1   
   130    99   129 1   
   131   100   130 1   
   132   100   131 1   
   133   100   132 1   
@<TRIPOS>SUBSTRUCTURE
     1 A1A         1 TEMP              0 ****  ****    0 ROOT
