@<TRIPOS>MOLECULE
A1A
   53    56     1     0     0
SMALL
abcg2


@<TRIPOS>ATOM
      1 C01        190.3810   266.7780   371.0940 ca         1 A1A       0.352900
      2 C03        188.1520   266.3320   371.2990 ca         1 A1A       0.229000
      3 C04        186.8230   266.8630   371.3620 ca         1 A1A       0.007000
      4 C05        185.7580   265.9950   371.4460 ca         1 A1A      -0.146000
      5 C06        185.9860   264.6070   371.4650 ca         1 A1A      -0.071000
      6 C07        187.2450   264.0750   371.4280 ca         1 A1A      -0.132000
      7 C08        188.3660   264.9330   371.3650 ca         1 A1A      -0.039000
      8 C09        189.7180   264.4790   371.3340 ca         1 A1A       0.046000
      9 C10        190.7120   265.4170   371.1800 ca         1 A1A      -0.156000
     10 C11        190.0880   263.0670   371.4470 cc         1 A1A      -0.200000
     11 C12        190.9750   262.3920   370.6560 cd         1 A1A      -0.115000
     12 C13        191.1980   261.0580   371.0840 cd         1 A1A      -0.142000
     13 C14        190.4880   260.7310   372.2010 cc         1 A1A      -0.218300
     14 C15        190.4060   259.4300   372.9300 c3         1 A1A       0.222100
     15 C19        185.6630   269.0510   371.4430 c          1 A1A       0.630700
     16 C21        185.9420   270.5120   371.5000 ca         1 A1A      -0.199600
     17 C22        187.1920   271.0640   371.7940 ca         1 A1A      -0.027500
     18 C23        187.3660   272.4310   371.8670 ca         1 A1A      -0.192500
     19 C24        186.2930   273.3000   371.6440 ca         1 A1A       0.181100
     20 C25        185.0390   272.7600   371.3530 ca         1 A1A      -0.192500
     21 C26        184.8790   271.3860   371.2890 ca         1 A1A      -0.027500
     22 C28        185.5400   275.5920   371.5940 c3         1 A1A       0.179300
     23 C29        186.2380   276.8910   371.2420 c3         1 A1A      -0.108100
     24 C30        184.7390   275.7070   372.8800 c3         1 A1A      -0.108100
     25 N02        189.1560   267.2230   371.1700 nb         1 A1A      -0.693000
     26 N16        190.1380   259.6560   374.3380 n8         1 A1A      -1.009200
     27 N18        186.7530   268.2480   371.3310 ns         1 A1A      -0.134000
     28 O20        184.5210   268.6230   371.4910 o          1 A1A      -0.594100
     29 O27        186.5720   274.6060   371.7210 os         1 A1A      -0.352100
     30 S17        189.5410   262.0600   372.7450 ss         1 A1A       0.288000
     31 H011       191.1680   267.5150   370.9800 h4         1 A1A       0.019100
     32 H051       184.7460   266.3610   371.4830 ha         1 A1A       0.153000
     33 H061       185.1290   263.9480   371.5030 ha         1 A1A       0.116000
     34 H071       187.3740   263.0030   371.4230 ha         1 A1A       0.125000
     35 H101       191.7510   265.1200   371.1590 ha         1 A1A       0.127000
     36 H121       191.4490   262.8360   369.7910 ha         1 A1A       0.134000
     37 H131       191.8600   260.3660   370.5810 ha         1 A1A       0.132000
     38 H151       191.3160   258.8560   372.7180 h1         1 A1A       0.042700
     39 H152       189.5760   258.8480   372.5200 h1         1 A1A       0.042700
     40 H221       188.0540   270.4420   372.0000 ha         1 A1A       0.126000
     41 H231       188.3400   272.8400   372.1040 ha         1 A1A       0.125500
     42 H251       184.1770   273.3870   371.1750 ha         1 A1A       0.125500
     43 H261       183.8970   270.9910   371.0680 ha         1 A1A       0.126000
     44 H281       184.8770   275.3210   370.7650 h1         1 A1A       0.044700
     45 H293       185.4960   277.6770   371.1020 hc         1 A1A       0.048367
     46 H292       186.9130   277.2040   372.0390 hc         1 A1A       0.048367
     47 H291       186.8070   276.7990   370.3170 hc         1 A1A       0.048367
     48 H303       183.9630   276.4630   372.7590 hc         1 A1A       0.048367
     49 H301       184.2480   274.7730   373.1540 hc         1 A1A       0.048367
     50 H302       185.3810   276.0130   373.7080 hc         1 A1A       0.048367
     51 H162       189.8880   258.7830   374.7830 hn         1 A1A       0.403500
     52 H1         190.9760   259.9840   374.8020 hn         1 A1A       0.403500
     53 H181       187.6660   268.6720   371.2220 hn         1 A1A       0.184000
@<TRIPOS>BOND
     1     1     9 ar  
     2     1    25 ar  
     3     1    31 1   
     4     2     3 ar  
     5     2     7 ar  
     6     2    25 ar  
     7     3     4 ar  
     8     3    27 1   
     9     4     5 ar  
    10     4    32 1   
    11     5     6 ar  
    12     5    33 1   
    13     6     7 ar  
    14     6    34 1   
    15     7     8 ar  
    16     8     9 ar  
    17     8    10 1   
    18     9    35 1   
    19    10    11 2   
    20    10    30 1   
    21    11    12 1   
    22    11    36 1   
    23    12    13 2   
    24    12    37 1   
    25    13    14 1   
    26    13    30 1   
    27    14    26 1   
    28    14    38 1   
    29    14    39 1   
    30    15    16 1   
    31    15    27 1   
    32    15    28 2   
    33    16    17 ar  
    34    16    21 ar  
    35    17    18 ar  
    36    17    40 1   
    37    18    19 ar  
    38    18    41 1   
    39    19    20 ar  
    40    19    29 1   
    41    20    21 ar  
    42    20    42 1   
    43    21    43 1   
    44    22    23 1   
    45    22    24 1   
    46    22    29 1   
    47    22    44 1   
    48    23    45 1   
    49    23    46 1   
    50    23    47 1   
    51    24    48 1   
    52    24    49 1   
    53    24    50 1   
    54    26    51 1   
    55    26    52 1   
    56    27    53 1   
@<TRIPOS>SUBSTRUCTURE
     1 A1A         1 TEMP              0 ****  ****    0 ROOT
