@<TRIPOS>MOLECULE
A1A
   30    31     1     0     0
SMALL
abcg2


@<TRIPOS>ATOM
      1 N12         -0.0180     0.9670     5.4780 nu         1 A1A      -0.865100
      2 C13         -0.5480    -0.2130     6.0580 ca         1 A1A       0.240000
      3 C15         -2.3050    -1.3810     7.2030 ca         1 A1A      -0.093500
      4 C17         -0.2740    -2.5310     6.6430 ca         1 A1A      -0.093500
      5 C04          0.0030    -1.4940     1.6750 ca         1 A1A      -0.280500
      6 C05         -1.2590    -2.0270     1.4320 ca         1 A1A       0.028000
      7 C06         -2.3650    -1.4340     2.0140 ca         1 A1A      -0.142000
      8 C07         -2.2140    -0.3160     2.8230 ca         1 A1A       0.047000
      9 C08         -0.9460     0.2030     3.0360 ca         1 A1A      -0.313500
     10 C14         -1.8120    -0.2120     6.6410 ca         1 A1A      -0.122500
     11 C16         -1.5410    -2.5400     7.2120 ca         1 A1A      -0.111000
     12 C18          0.2170    -1.3760     6.0540 ca         1 A1A      -0.122500
     13 C19          0.1810    -0.3750     2.4680 ca         1 A1A       0.070000
     14 O01          1.0390    -2.7720    -0.3700 o          1 A1A      -0.508000
     15 O03          2.5810    -1.4380     1.1220 o          1 A1A      -0.508000
     16 O10          0.2430     2.5100     3.5500 o          1 A1A      -0.521500
     17 O11         -2.0540     2.0760     4.4750 o          1 A1A      -0.521500
     18 S09         -0.7330     1.5990     4.1160 sy         1 A1A       1.142600
     19 H121         0.9940     0.9620     5.3830 hn         1 A1A       0.492000
     20 H151        -3.2900    -1.3790     7.6520 ha         1 A1A       0.120000
     21 H171         0.3320    -3.4270     6.6450 ha         1 A1A       0.120000
     22 H051        -1.3820    -2.8980     0.8020 ha         1 A1A       0.137000
     23 H061        -3.3510    -1.8410     1.8380 ha         1 A1A       0.130000
     24 H071        -3.0820     0.1400     3.2790 ha         1 A1A       0.149000
     25 H141        -2.4010     0.6930     6.6700 ha         1 A1A       0.129500
     26 H161        -1.9280    -3.4440     7.6630 ha         1 A1A       0.120000
     27 H181         1.1960    -1.3710     5.5910 ha         1 A1A       0.129500
     28 H191         1.1690     0.0290     2.6450 ha         1 A1A       0.150000
     29 H021         1.5580    -3.3700     1.7660 hs         1 A1A       0.084800
     30 S02          1.4150    -2.2940     0.9530 sy         1 A1A       0.912700
@<TRIPOS>BOND
     1     1     2 1   
     2     1    18 1   
     3     1    19 1   
     4     2    10 ar  
     5     2    12 ar  
     6     3    10 ar  
     7     3    11 ar  
     8     3    20 1   
     9     4    11 ar  
    10     4    12 ar  
    11     4    21 1   
    12     5     6 ar  
    13     5    13 ar  
    14     5    30 1   
    15     6     7 ar  
    16     6    22 1   
    17     7     8 ar  
    18     7    23 1   
    19     8     9 ar  
    20     8    24 1   
    21     9    13 ar  
    22     9    18 1   
    23    10    25 1   
    24    11    26 1   
    25    12    27 1   
    26    13    28 1   
    27    14    30 2   
    28    15    30 2   
    29    16    18 2   
    30    17    18 2   
    31    29    30 1   
@<TRIPOS>SUBSTRUCTURE
     1 A1A         1 TEMP              0 ****  ****    0 ROOT
