@<TRIPOS>MOLECULE
A1A
   25    27     1     0     0
SMALL
abcg2


@<TRIPOS>ATOM
      1 C01         -4.7830     9.0160    40.4590 cc         1 A1A      -0.429600
      2 C02         -4.7740     7.6680    40.6940 cd         1 A1A       0.486900
      3 C04         -7.0310     7.4350    39.9280 c          1 A1A       0.633000
      4 C06         -5.9270     9.7000    39.9380 c          1 A1A       0.648600
      5 C08         -2.7400     8.0880    41.3390 cc         1 A1A       0.529900
      6 C13         -1.4000     7.8340    41.8570 ca         1 A1A      -0.160500
      7 C14         -1.1110     6.5860    42.4140 ca         1 A1A      -0.071500
      8 C15          0.1550     6.3220    42.9090 ca         1 A1A      -0.115000
      9 C16          1.1450     7.2950    42.8530 ca         1 A1A      -0.084000
     10 C17          0.8640     8.5380    42.3000 ca         1 A1A      -0.115000
     11 C18         -0.4010     8.8070    41.8040 ca         1 A1A      -0.071500
     12 N03         -5.8710     6.9090    40.4320 ns         1 A1A      -0.570900
     13 N05         -6.9820     8.8100    39.6970 n          1 A1A      -0.265900
     14 N09         -3.6360     7.1490    41.1860 nd         1 A1A      -0.685000
     15 O10         -6.0200    10.8840    39.7120 o          1 A1A      -0.490000
     16 O11         -8.0120     6.7730    39.6950 o          1 A1A      -0.514000
     17 O12         -8.1480     9.3630    39.2890 oh         1 A1A      -0.389100
     18 S07         -3.2610     9.6780    40.8900 ss         1 A1A       0.121600
     19 H141        -1.8790     5.8260    42.4620 ha         1 A1A       0.126500
     20 H151         0.3690     5.3530    43.3390 ha         1 A1A       0.121000
     21 H161         2.1340     7.0860    43.2390 ha         1 A1A       0.119000
     22 H171         1.6310     9.2980    42.2500 ha         1 A1A       0.121000
     23 H181        -0.5920     9.7790    41.3640 ha         1 A1A       0.126500
     24 H1          -5.8470     5.9130    40.6080 hn         1 A1A       0.479000
     25 H121        -8.1340     9.3630    38.3200 ho         1 A1A       0.449000
@<TRIPOS>BOND
     1     1     2 2   
     2     1     4 1   
     3     1    18 1   
     4     2    12 1   
     5     2    14 1   
     6     3    12 1   
     7     3    13 1   
     8     3    16 2   
     9     4    13 1   
    10     4    15 2   
    11     5     6 1   
    12     5    14 2   
    13     5    18 1   
    14     6     7 ar  
    15     6    11 ar  
    16     7     8 ar  
    17     7    19 1   
    18     8     9 ar  
    19     8    20 1   
    20     9    10 ar  
    21     9    21 1   
    22    10    11 ar  
    23    10    22 1   
    24    11    23 1   
    25    12    24 1   
    26    13    17 1   
    27    17    25 1   
@<TRIPOS>SUBSTRUCTURE
     1 A1A         1 TEMP              0 ****  ****    0 ROOT
