@<TRIPOS>MOLECULE
A1A
   71    74     1     0     0
SMALL
abcg2


@<TRIPOS>ATOM
      1 C13          6.9030   -21.0990    19.2100 c5         1 A1A      -0.156700
      2 C17          5.8900   -20.5580    20.2180 c5         1 A1A      -0.091400
      3 C22         10.6010   -17.8470    22.5110 ca         1 A1A      -0.149600
      4 C24          9.9100   -15.5460    22.7310 ca         1 A1A      -0.115500
      5 C26         10.9800   -14.0080    24.3880 cp         1 A1A      -0.085000
      6 C28         11.3680   -12.7230    26.4370 ca         1 A1A      -0.129000
      7 C02         10.4370   -19.1530    21.8110 c          1 A1A       0.616700
      8 C04         10.7090   -21.5630    21.9020 c3         1 A1A       0.035700
      9 C05         11.4320   -22.6000    22.7640 c3         1 A1A      -0.085400
     10 C06         12.9390   -22.3790    22.9210 c3         1 A1A      -0.058700
     11 C07         13.6620   -22.3540    21.5790 c3         1 A1A      -0.091100
     12 C08         13.5140   -23.4650    23.8260 c3         1 A1A      -0.091100
     13 C09          9.2280   -21.9390    21.8070 c          1 A1A       0.591100
     14 C11          7.5920   -23.2060    20.4520 c3         1 A1A       0.048400
     15 C12          7.0340   -22.6110    19.1550 c3         1 A1A      -0.069400
     16 C14          6.4370   -20.4990    17.8910 c          1 A1A       0.565000
     17 C16          5.4230   -19.2410    19.5960 c5         1 A1A       0.100000
     18 C19          7.6580   -24.7060    20.3490 c2         1 A1A       0.403200
     19 C23          9.7960   -16.7800    22.1170 ca         1 A1A      -0.068000
     20 C25         10.8460   -15.3300    23.7450 cp         1 A1A       0.001000
     21 C27         11.2310   -13.9230    25.7810 ca         1 A1A      -0.062000
     22 C29         11.2570   -11.5620    25.6640 ca         1 A1A      -0.035200
     23 C30         11.0090   -11.6140    24.2820 ca         1 A1A      -0.234900
     24 C31         10.8680   -12.8490    23.6410 ca         1 A1A      -0.016000
     25 C32         10.9760   -10.2510    23.8880 cc         1 A1A       0.358800
     26 C36         11.6600   -16.3980    24.1250 ca         1 A1A      -0.115500
     27 C37         11.5400   -17.6380    23.5200 ca         1 A1A      -0.068000
     28 N03         10.8570   -20.2490    22.4710 ns         1 A1A      -0.481900
     29 N10          8.9160   -22.6900    20.7380 ns         1 A1A      -0.499900
     30 N15          5.5980   -19.4910    18.1810 ns         1 A1A      -0.513900
     31 N20          6.8800   -25.4450    21.0110 n2         1 A1A      -0.727100
     32 N33         11.1790    -9.4680    24.9180 nd         1 A1A      -0.515100
     33 N34         11.3480   -10.2520    25.9890 na         1 A1A       0.075600
     34 O01          9.9520   -19.2180    20.6890 o          1 A1A      -0.610100
     35 O18          6.7760   -20.8570    16.7750 o          1 A1A      -0.563000
     36 O21          8.4320   -21.6060    22.6700 o          1 A1A      -0.598100
     37 H131         7.8880   -20.6570    19.4100 hc         1 A1A       0.096700
     38 H171         6.3050   -20.4180    21.2140 hc         1 A1A       0.065200
     39 H172         5.0470   -21.2490    20.3010 hc         1 A1A       0.065200
     40 H241         9.2480   -14.7440    22.4290 ha         1 A1A       0.118500
     41 H281        11.5490   -12.6870    27.5030 ha         1 A1A       0.122000
     42 H041        11.1450   -21.5600    20.8990 h1         1 A1A       0.077700
     43 H052        11.2630   -23.5850    22.3180 hc         1 A1A       0.056200
     44 H051        10.9640   -22.6240    23.7530 hc         1 A1A       0.056200
     45 H061        13.1030   -21.4150    23.4140 hc         1 A1A       0.045700
     46 H073        13.3420   -21.5200    20.9530 hc         1 A1A       0.035867
     47 H072        14.7390   -22.2550    21.7220 hc         1 A1A       0.035867
     48 H071        13.4840   -23.2770    21.0220 hc         1 A1A       0.035867
     49 H082        13.0210   -23.4760    24.7990 hc         1 A1A       0.035867
     50 H083        13.3880   -24.4540    23.3780 hc         1 A1A       0.035867
     51 H081        14.5800   -23.3110    23.9950 hc         1 A1A       0.035867
     52 H111         6.9430   -22.9530    21.2900 h1         1 A1A       0.107700
     53 H121         6.0550   -23.0600    18.9640 hc         1 A1A       0.060700
     54 H122         7.6810   -22.8980    18.3210 hc         1 A1A       0.060700
     55 H162         4.3840   -19.0120    19.8290 h1         1 A1A       0.044700
     56 H161         6.0360   -18.3980    19.9290 h1         1 A1A       0.044700
     57 H191         8.4120   -25.0870    19.6520 h4         1 A1A      -0.042200
     58 H231         9.0610   -16.9210    21.3360 ha         1 A1A       0.122500
     59 H271        11.2960   -14.8360    26.3580 ha         1 A1A       0.115000
     60 H311        10.6970   -12.8920    22.5720 ha         1 A1A       0.122000
     61 H321        10.8140    -9.8360    22.9050 h4         1 A1A       0.052800
     62 H351        11.5870    -8.6090    27.2060 h1         1 A1A       0.055033
     63 H352        10.8300    -9.9970    28.0000 h1         1 A1A       0.055033
     64 H353        12.5720   -10.0050    27.6710 h1         1 A1A       0.055033
     65 H361        12.4180   -16.2580    24.8850 ha         1 A1A       0.118500
     66 H371        12.2160   -18.4270    23.8240 ha         1 A1A       0.122500
     67 H031        11.0520   -20.1840    23.4570 hn         1 A1A       0.325500
     68 H101         9.6330   -22.8600    20.0480 hn         1 A1A       0.314500
     69 H151         5.2500   -18.8650    17.4710 hn         1 A1A       0.324500
     70 H201         7.0560   -26.4250    20.8030 hn         1 A1A       0.378400
     71 C35         11.5990    -9.6910    27.2920 c3         1 A1A       0.078900
@<TRIPOS>BOND
     1     1     2 1   
     2     1    15 1   
     3     1    16 1   
     4     1    37 1   
     5     2    17 1   
     6     2    38 1   
     7     2    39 1   
     8     3     7 1   
     9     3    19 ar  
    10     3    27 ar  
    11     4    19 ar  
    12     4    20 ar  
    13     4    40 1   
    14     5    20 1   
    15     5    21 ar  
    16     5    24 ar  
    17     6    21 ar  
    18     6    22 ar  
    19     6    41 1   
    20     7    28 1   
    21     7    34 2   
    22     8     9 1   
    23     8    13 1   
    24     8    28 1   
    25     8    42 1   
    26     9    10 1   
    27     9    43 1   
    28     9    44 1   
    29    10    11 1   
    30    10    12 1   
    31    10    45 1   
    32    11    46 1   
    33    11    47 1   
    34    11    48 1   
    35    12    49 1   
    36    12    50 1   
    37    12    51 1   
    38    13    29 1   
    39    13    36 2   
    40    14    15 1   
    41    14    18 1   
    42    14    29 1   
    43    14    52 1   
    44    15    53 1   
    45    15    54 1   
    46    16    30 1   
    47    16    35 2   
    48    17    30 1   
    49    17    55 1   
    50    17    56 1   
    51    18    31 2   
    52    18    57 1   
    53    19    58 1   
    54    20    26 ar  
    55    21    59 1   
    56    22    23 ar  
    57    22    33 1   
    58    23    24 ar  
    59    23    25 1   
    60    24    60 1   
    61    25    32 2   
    62    25    61 1   
    63    26    27 ar  
    64    26    65 1   
    65    27    66 1   
    66    28    67 1   
    67    29    68 1   
    68    30    69 1   
    69    31    70 1   
    70    32    33 1   
    71    33    71 1   
    72    62    71 1   
    73    63    71 1   
    74    64    71 1   
@<TRIPOS>SUBSTRUCTURE
     1 A1A         1 TEMP              0 ****  ****    0 ROOT
