@<TRIPOS>MOLECULE
A1A
   22    21     1     0     0
SMALL
abcg2


@<TRIPOS>ATOM
      1 C1          -1.7750     2.3450    -0.3660 c3         1 A1A       0.159100
      2 N           -0.7470     1.5350     0.2520 n7         1 A1A      -0.826400
      3 CA          -0.6370     0.2080    -0.3270 c3         1 A1A       0.032500
      4 C           -1.8810    -0.6850    -0.0610 c          1 A1A       0.721000
      5 O           -2.5640    -0.4540     0.9540 o          1 A1A      -0.725500
      6 CB           0.5930    -0.5160     0.2330 c3         1 A1A      -0.065400
      7 CG           1.9270     0.1430    -0.1060 c3         1 A1A      -0.085400
      8 CD           3.0980    -0.7140     0.3350 c3         1 A1A       0.155600
      9 OXT         -2.0550    -1.6040    -0.8890 o          1 A1A      -0.725500
     10 H1          -1.7110     2.3920    -1.4640 h1         1 A1A       0.013367
     11 H4          -2.7640     1.9660    -0.1100 h1         1 A1A       0.013367
     12 H3          -1.7120     3.3670     0.0090 h1         1 A1A       0.013367
     13 H            0.1350     2.0140     0.1250 hn         1 A1A       0.360000
     14 HA          -0.5100     0.2630    -1.4230 h1         1 A1A       0.002700
     15 HB1          0.4880    -0.6080     1.3190 hc         1 A1A       0.048200
     16 HB2          0.5950    -1.5310    -0.1700 hc         1 A1A       0.048200
     17 H10          1.9860     0.3070    -1.1870 hc         1 A1A       0.039700
     18 H11          2.0140     1.1230     0.3720 hc         1 A1A       0.039700
     19 H12          3.0200    -0.9040     1.4140 h1         1 A1A       0.013700
     20 H13          3.0310    -1.6930    -0.1600 h1         1 A1A       0.013700
     21 OE           4.3040    -0.0550     0.0130 oh         1 A1A      -0.672000
     22 H5           5.0350    -0.6300     0.2600 ho         1 A1A       0.425000
@<TRIPOS>BOND
     1     1     2 1   
     2     1    10 1   
     3     1    11 1   
     4     1    12 1   
     5     2     3 1   
     6     2    13 1   
     7     3     4 1   
     8     3     6 1   
     9     3    14 1   
    10     4     5 1   
    11     4     9 1   
    12     6     7 1   
    13     6    15 1   
    14     6    16 1   
    15     7     8 1   
    16     7    17 1   
    17     7    18 1   
    18     8    19 1   
    19     8    20 1   
    20     8    21 1   
    21    21    22 1   
@<TRIPOS>SUBSTRUCTURE
     1 A1A         1 TEMP              0 ****  ****    0 ROOT
