@<TRIPOS>MOLECULE
A1A
   51    50     1     0     0
SMALL
abcg2


@<TRIPOS>ATOM
      1 O13        -57.5160    63.3050   -12.2010 oh         1 A1A      -0.657000
      2 O21        -59.2260    58.6630    -9.7710 o          1 A1A      -0.921167
      3 C11        -59.3780    64.8570   -12.0550 c          1 A1A       0.555100
      4 C12        -58.8990    63.4080   -11.9350 c3         1 A1A       0.109300
      5 C02        -56.4150    66.9450    -8.8150 c          1 A1A       0.595100
      6 C04        -56.6980    69.3860    -8.8760 c3         1 A1A       0.077000
      7 C05        -56.9310    69.9240   -10.2890 c3         1 A1A       0.086000
      8 C07        -56.8660    68.1560   -12.0710 c          1 A1A       0.604100
      9 C08        -58.3760    68.0320   -12.0430 c3         1 A1A      -0.184400
     10 C09        -58.9160    67.0440   -13.0670 c3         1 A1A       0.122000
     11 C14        -59.6540    62.4470   -12.8830 c3         1 A1A      -0.069000
     12 C15        -59.4410    62.8290   -14.3500 c3         1 A1A      -0.086100
     13 C16        -59.0970    61.0170   -12.6890 c3         1 A1A       0.272600
     14 C22        -61.1550    62.4510   -12.5860 c3         1 A1A      -0.086100
     15 C25        -57.1960    65.6380    -8.8350 c3         1 A1A       0.069800
     16 N03        -57.1790    68.0400    -8.7200 ns         1 A1A      -0.506900
     17 N06        -56.3040    69.1120   -11.3030 ns         1 A1A      -0.511900
     18 N10        -58.6010    65.6620   -12.7940 ns         1 A1A      -0.510900
     19 N29        -58.5980    65.7930    -8.5070 n8         1 A1A      -1.045200
     20 O01        -55.1940    66.9480    -8.9080 o          1 A1A      -0.630100
     21 O17        -59.0110    60.5930   -11.3670 os         1 A1A      -0.602400
     22 O19        -61.0280    60.4780    -9.7660 o          1 A1A      -0.921167
     23 O23        -60.4110    65.2350   -11.5130 o          1 A1A      -0.631100
     24 O24        -56.1810    67.4420   -12.7930 o          1 A1A      -0.603100
     25 P18        -60.1480    59.5480   -10.6030 p5         1 A1A       1.271900
     26 H131       -57.0270    63.5050   -11.3970 ho         1 A1A       0.427000
     27 H121       -59.1240    63.0910   -10.9090 h1         1 A1A       0.111700
     28 H041       -57.2040    70.0400    -8.1630 h1         1 A1A       0.050700
     29 H042       -55.6350    69.4110    -8.6380 h1         1 A1A       0.050700
     30 H052       -57.9980    70.0010   -10.4870 h1         1 A1A       0.042700
     31 H051       -56.5310    70.9380   -10.3490 h1         1 A1A       0.042700
     32 H081       -58.8260    69.0110   -12.2380 hc         1 A1A       0.062700
     33 H082       -58.7090    67.7470   -11.0420 hc         1 A1A       0.062700
     34 H091       -60.0000    67.1490   -13.1090 h1         1 A1A       0.047200
     35 H092       -58.5380    67.2860   -14.0600 h1         1 A1A       0.047200
     36 H151       -59.8950    62.0760   -14.9990 hc         1 A1A       0.030033
     37 H153       -59.9090    63.7840   -14.5950 hc         1 A1A       0.030033
     38 H152       -58.3860    62.8940   -14.6190 hc         1 A1A       0.030033
     39 H162       -58.0950    60.9790   -13.1360 h1         1 A1A      -0.001800
     40 H161       -59.7280    60.3470   -13.2870 h1         1 A1A      -0.001800
     41 H223       -61.6450    61.7060   -13.2170 hc         1 A1A       0.030033
     42 H221       -61.3610    62.1830   -11.5510 hc         1 A1A       0.030033
     43 H222       -61.6170    63.4130   -12.8010 hc         1 A1A       0.030033
     44 H251       -57.1050    65.2660    -9.8590 h1         1 A1A       0.071700
     45 H252       -56.6590    64.9210    -8.2060 h1         1 A1A       0.071700
     46 H031       -58.1750    67.8660    -8.6660 hn         1 A1A       0.348500
     47 H061       -55.2940    69.1350   -11.3270 hn         1 A1A       0.310500
     48 H101       -57.7250    65.2960   -13.1300 hn         1 A1A       0.341500
     49 H291       -59.1600    65.1150    -8.9990 hn         1 A1A       0.431000
     50 H292       -58.7540    65.6480    -7.5190 hn         1 A1A       0.431000
     51 O1         -60.8710    58.8380   -11.7450 o          1 A1A      -0.921167
@<TRIPOS>BOND
     1     1     4 1   
     2     1    26 1   
     3     2    25 1   
     4     3     4 1   
     5     3    18 1   
     6     3    23 2   
     7     4    11 1   
     8     4    27 1   
     9     5    15 1   
    10     5    16 1   
    11     5    20 2   
    12     6     7 1   
    13     6    16 1   
    14     6    28 1   
    15     6    29 1   
    16     7    17 1   
    17     7    30 1   
    18     7    31 1   
    19     8     9 1   
    20     8    17 1   
    21     8    24 2   
    22     9    10 1   
    23     9    32 1   
    24     9    33 1   
    25    10    18 1   
    26    10    34 1   
    27    10    35 1   
    28    11    12 1   
    29    11    13 1   
    30    11    14 1   
    31    12    36 1   
    32    12    37 1   
    33    12    38 1   
    34    13    21 1   
    35    13    39 1   
    36    13    40 1   
    37    14    41 1   
    38    14    42 1   
    39    14    43 1   
    40    15    19 1   
    41    15    44 1   
    42    15    45 1   
    43    16    46 1   
    44    17    47 1   
    45    18    48 1   
    46    19    49 1   
    47    19    50 1   
    48    21    25 1   
    49    22    25 1   
    50    25    51 1   
@<TRIPOS>SUBSTRUCTURE
     1 A1A         1 TEMP              0 ****  ****    0 ROOT
