@<TRIPOS>MOLECULE
A1A
   64    64     1     0     0
SMALL
abcg2


@<TRIPOS>ATOM
      1 C01         -3.9610    25.3530    -8.5520 c3         1 A1A      -0.092100
      2 C02         -2.8330    26.3480    -8.7610 c3         1 A1A       0.161300
      3 C04         -1.5770    26.0530    -7.9160 c3         1 A1A       0.079700
      4 C07          0.3640    22.9540    -8.9120 c3         1 A1A      -0.176100
      5 C09         -1.7950    26.3050    -6.4200 c6         1 A1A       0.138300
      6 C10         -0.6190    25.8600    -5.5470 c6         1 A1A       0.092700
      7 C13          2.8730    26.5980    -6.8220 c3         1 A1A      -0.178100
      8 C15         -0.9500    26.2240    -4.0990 c6         1 A1A       0.149300
      9 C17         -1.2660    27.7100    -3.9850 c6         1 A1A      -0.118400
     10 C18         -2.3230    28.1560    -5.0000 c6         1 A1A       0.245000
     11 C21         -5.8760    28.0580    -4.4880 c3         1 A1A      -0.024300
     12 C22         -6.0900    26.7870    -3.6160 c          1 A1A       0.730000
     13 C28         -7.1590    31.5340    -1.4740 c3         1 A1A       0.229800
     14 C29         -7.3920    30.8490    -0.1660 c2         1 A1A      -0.275200
     15 C30         -6.8530    29.7070     0.2390 c2         1 A1A      -0.275000
     16 C32         -2.3240    29.7180    -5.0370 c          1 A1A       0.726000
     17 N05         -1.0870    24.7160    -8.1400 ns         1 A1A      -0.486900
     18 N11          0.6110    26.4590    -6.0040 ns         1 A1A      -0.474900
     19 N25         -5.6940    29.2710    -3.7320 ns         1 A1A      -0.454900
     20 O03         -2.5130    26.3170   -10.1370 oh         1 A1A      -0.680000
     21 O16          0.1380    25.8520    -3.2880 oh         1 A1A      -0.671000
     22 O19         -3.5370    27.6190    -4.5750 os         1 A1A      -0.457000
     23 O23         -5.9860    26.8950    -2.3840 o          1 A1A      -0.739000
     24 O24         -6.3450    25.7560    -4.2710 o          1 A1A      -0.739000
     25 O27         -6.2370    30.8690    -2.3120 os         1 A1A      -0.457100
     26 O31         -7.8660    29.5140    -3.1030 o          1 A1A      -0.597000
     27 O33         -3.0400    30.2730    -4.1750 o          1 A1A      -0.702000
     28 O34         -1.5620    30.2600    -5.8460 o          1 A1A      -0.702000
     29 O35         -1.9990    27.6980    -6.2900 os         1 A1A      -0.464000
     30 H1          -4.2740    25.3140    -7.5100 hc         1 A1A       0.043033
     31 H2          -4.8320    25.6430    -9.1400 hc         1 A1A       0.043033
     32 H3          -3.6720    24.3460    -8.8580 hc         1 A1A       0.043033
     33 H4          -3.1930    27.3430    -8.4740 h1         1 A1A       0.072700
     34 H5          -0.7910    26.7350    -8.2490 h1         1 A1A       0.085700
     35 H6           0.4190    22.6350    -9.9530 hc         1 A1A       0.051367
     36 H7           1.3490    22.8030    -8.4730 hc         1 A1A       0.051367
     37 H8          -0.3460    22.3130    -8.3920 hc         1 A1A       0.051367
     38 H9          -2.6780    25.7440    -6.0800 h1         1 A1A       0.063700
     39 H10         -0.5090    24.7780    -5.6150 h1         1 A1A       0.070700
     40 H11          3.7870    26.3950    -6.2650 hc         1 A1A       0.051033
     41 H12          3.0470    26.2980    -7.8560 hc         1 A1A       0.051033
     42 H13          2.6870    27.6700    -6.8050 hc         1 A1A       0.051033
     43 H14         -1.8460    25.6490    -3.8280 h1         1 A1A       0.061700
     44 H15         -0.3510    28.2870    -4.1490 hc         1 A1A       0.062700
     45 H16         -1.6120    27.9520    -2.9770 hc         1 A1A       0.062700
     46 H17         -4.8510    27.0320    -6.0620 h1         1 A1A       0.023200
     47 H18         -4.5320    28.7610    -6.0140 h1         1 A1A       0.023200
     48 H19         -6.7450    28.1620    -5.1460 h1         1 A1A       0.039700
     49 H20         -6.7310    32.5230    -1.2890 h1         1 A1A       0.034200
     50 H21         -8.1150    31.7010    -1.9790 h1         1 A1A       0.034200
     51 H22         -8.0710    31.3840     0.4920 ha         1 A1A       0.132000
     52 H24         -7.0870    29.3020     1.2140 ha         1 A1A       0.175500
     53 H25         -6.1740    29.1260    -0.3720 ha         1 A1A       0.175500
     54 H27         -1.5970    23.9510    -7.7270 hn         1 A1A       0.310500
     55 H28          0.6020    27.4470    -6.2050 hn         1 A1A       0.334500
     56 H29         -4.7430    29.6390    -3.6600 hn         1 A1A       0.382500
     57 H30         -1.8610    27.0040   -10.3150 ho         1 A1A       0.443000
     58 H31         -0.0860    26.0530    -2.3730 ho         1 A1A       0.436000
     59 C06          0.0190    24.4210    -8.8500 c          1 A1A       0.619100
     60 C12          1.7410    25.7730    -6.2600 c          1 A1A       0.614100
     61 C20         -4.6680    27.8720    -5.3880 c3         1 A1A       0.180600
     62 C26         -6.6940    29.8360    -3.0570 c          1 A1A       0.633100
     63 O08          0.7100    25.2640    -9.4040 o          1 A1A      -0.640100
     64 O14          1.8570    24.5690    -6.0770 o          1 A1A      -0.655100
@<TRIPOS>BOND
     1     1     2 1   
     2     1    30 1   
     3     1    31 1   
     4     1    32 1   
     5     2     3 1   
     6     2    20 1   
     7     2    33 1   
     8     3     5 1   
     9     3    17 1   
    10     3    34 1   
    11     4    35 1   
    12     4    36 1   
    13     4    37 1   
    14     4    59 1   
    15     5     6 1   
    16     5    29 1   
    17     5    38 1   
    18     6     8 1   
    19     6    18 1   
    20     6    39 1   
    21     7    40 1   
    22     7    41 1   
    23     7    42 1   
    24     7    60 1   
    25     8     9 1   
    26     8    21 1   
    27     8    43 1   
    28     9    10 1   
    29     9    44 1   
    30     9    45 1   
    31    10    16 1   
    32    10    22 1   
    33    10    29 1   
    34    11    12 1   
    35    11    19 1   
    36    11    48 1   
    37    11    61 1   
    38    12    23 1   
    39    12    24 1   
    40    13    14 1   
    41    13    25 1   
    42    13    49 1   
    43    13    50 1   
    44    14    15 2   
    45    14    51 1   
    46    15    52 1   
    47    15    53 1   
    48    16    27 1   
    49    16    28 1   
    50    17    54 1   
    51    17    59 1   
    52    18    55 1   
    53    18    60 1   
    54    19    56 1   
    55    19    62 1   
    56    20    57 1   
    57    21    58 1   
    58    22    61 1   
    59    25    62 1   
    60    26    62 2   
    61    46    61 1   
    62    47    61 1   
    63    59    63 2   
    64    60    64 2   
@<TRIPOS>SUBSTRUCTURE
     1 A1A         1 TEMP              0 ****  ****    0 ROOT
