@<TRIPOS>MOLECULE
A1A
   47    50     1     0     0
SMALL
abcg2


@<TRIPOS>ATOM
      1 C4         -25.5720    20.0870    10.4290 ca         1 A1A      -0.128000
      2 C5         -26.1900    20.3640     9.2100 ca         1 A1A      -0.072200
      3 C6         -25.4520    20.4880     8.0150 ca         1 A1A      -0.078800
      4 C7         -26.3920    20.7250     6.9670 cc         1 A1A      -0.193400
      5 C8         -27.6360    20.7620     7.5470 cd         1 A1A      -0.035300
      6 C10        -26.0280    20.9570     5.5390 c3         1 A1A       0.047100
      7 C15        -25.7140    23.3950     6.1040 ca         1 A1A      -0.101000
      8 C17        -24.9570    25.0320     4.5080 ca         1 A1A      -0.135000
      9 C20        -24.4590    24.3210     2.2030 ca         1 A1A      -0.108000
     10 C21        -24.3860    23.3440     1.2480 ca         1 A1A      -0.121000
     11 C22        -24.7340    22.0190     1.5740 ca         1 A1A      -0.134000
     12 C1         -24.1940    19.9630    10.4380 ca         1 A1A      -0.131000
     13 C2         -23.4420    20.1040     9.2610 ca         1 A1A      -0.159000
     14 C3         -24.0590    20.3650     8.0520 ca         1 A1A      -0.077000
     15 N9         -27.5110    20.5580     8.9090 na         1 A1A      -0.063700
     16 C11        -25.6530    22.3800     5.1840 ca         1 A1A      -0.029300
     17 C12        -28.9550    21.0880     6.8760 c          1 A1A       0.734200
     18 O13        -29.7230    21.8460     7.4990 o          1 A1A      -0.704000
     19 O14        -29.1290    20.5960     5.7470 o          1 A1A      -0.704000
     20 C16        -25.3670    24.7210     5.7710 ca         1 A1A      -0.091000
     21 C18        -25.2290    22.6850     3.8550 ca         1 A1A      -0.034000
     22 C19        -24.8790    24.0220     3.5200 ca         1 A1A      -0.035000
     23 C23        -25.1430    21.7000     2.8410 ca         1 A1A      -0.080000
     24 C25        -28.9000    18.8180     9.9760 c3         1 A1A       0.135600
     25 O26        -29.3510    18.3340     8.7390 os         1 A1A      -0.409000
     26 C27        -29.6170    16.9570     8.7600 c3         1 A1A       0.150900
     27 H31        -26.1380    19.9750    11.3450 ha         1 A1A       0.095000
     28 H33        -25.1860    20.3040     5.2850 hc         1 A1A       0.063200
     29 H32        -26.8530    20.6370     4.9000 hc         1 A1A       0.063200
     30 H35        -26.0360    23.1780     7.1150 ha         1 A1A       0.139000
     31 H37        -24.6890    26.0480     4.2450 ha         1 A1A       0.096000
     32 H38        -24.1960    25.3440     1.9610 ha         1 A1A       0.098000
     33 H39        -24.0640    23.5860     0.2430 ha         1 A1A       0.096000
     34 H40        -24.6770    21.2480     0.8160 ha         1 A1A       0.099000
     35 H43        -28.2940    20.6790    10.8250 h1         1 A1A       0.078700
     36 H42        -29.4610    20.8490     9.5300 h1         1 A1A       0.078700
     37 H28        -23.6870    19.7540    11.3710 ha         1 A1A       0.086000
     38 H29        -22.3650    20.0030     9.3050 ha         1 A1A       0.088000
     39 H30        -23.4710    20.4690     7.1470 ha         1 A1A       0.103000
     40 H36        -25.4300    25.4900     6.5300 ha         1 A1A       0.102000
     41 H41        -25.4060    20.6740     3.0630 ha         1 A1A       0.119000
     42 H45        -28.0110    18.2650    10.3120 h1         1 A1A       0.012700
     43 H44        -29.6650    18.6930    10.7560 h1         1 A1A       0.012700
     44 H47        -29.9540    16.6630     7.7670 h1         1 A1A       0.018367
     45 H48        -28.7260    16.3690     9.0110 h1         1 A1A       0.018367
     46 H46        -30.4020    16.6980     9.4820 h1         1 A1A       0.018367
     47 C24        -28.5810    20.2940     9.8450 c3         1 A1A       0.073600
@<TRIPOS>BOND
     1     1     2 ar  
     2     1    12 ar  
     3     1    27 1   
     4     2     3 ar  
     5     2    15 1   
     6     3     4 1   
     7     3    14 ar  
     8     4     5 2   
     9     4     6 1   
    10     5    15 1   
    11     5    17 1   
    12     6    16 1   
    13     6    28 1   
    14     6    29 1   
    15     7    16 ar  
    16     7    20 ar  
    17     7    30 1   
    18     8    20 ar  
    19     8    22 ar  
    20     8    31 1   
    21     9    10 ar  
    22     9    22 ar  
    23     9    32 1   
    24    10    11 ar  
    25    10    33 1   
    26    11    23 ar  
    27    11    34 1   
    28    12    13 ar  
    29    12    37 1   
    30    13    14 ar  
    31    13    38 1   
    32    14    39 1   
    33    15    47 1   
    34    16    21 ar  
    35    17    18 1   
    36    17    19 1   
    37    20    40 1   
    38    21    22 ar  
    39    21    23 ar  
    40    23    41 1   
    41    24    25 1   
    42    24    42 1   
    43    24    43 1   
    44    24    47 1   
    45    25    26 1   
    46    26    44 1   
    47    26    45 1   
    48    26    46 1   
    49    35    47 1   
    50    36    47 1   
@<TRIPOS>SUBSTRUCTURE
     1 A1A         1 TEMP              0 ****  ****    0 ROOT
