@<TRIPOS>MOLECULE
A1A
   40    43     1     0     0
SMALL
abcg2


@<TRIPOS>ATOM
      1 N1         -26.4920    20.9320     7.1850 na         1 A1A      -0.077700
      2 C4         -26.0630    21.0990     5.8170 c3         1 A1A       0.125900
      3 C5         -25.6380    20.6280     8.2100 ca         1 A1A      -0.075200
      4 C6         -25.7490    22.5350     5.4380 ca         1 A1A      -0.050300
      5 C7         -26.3820    20.6100     9.4110 ca         1 A1A      -0.093800
      6 C8         -28.9900    21.5040     6.8990 c          1 A1A       0.729200
      7 C15        -24.2650    20.3690     8.1950 ca         1 A1A      -0.125000
      8 C17        -25.5110    24.8400     6.1930 ca         1 A1A      -0.092000
      9 C20        -25.0520    24.8320     2.5450 ca         1 A1A      -0.109000
     10 C21        -25.2960    25.2640     4.9180 ca         1 A1A      -0.125000
     11 C24        -24.3800    20.0440    10.6010 ca         1 A1A      -0.162000
     12 C2         -27.7600    21.1340     7.7030 cc         1 A1A      -0.086300
     13 C3         -27.7190    20.9390     9.0580 cd         1 A1A      -0.263200
     14 C9         -25.4840    22.9400     4.0840 ca         1 A1A      -0.001000
     15 O10        -30.0110    21.7130     7.5780 o          1 A1A      -0.706000
     16 C11        -25.4070    22.0660     2.9430 ca         1 A1A      -0.042300
     17 C12        -25.2790    24.3370     3.8500 ca         1 A1A      -0.035000
     18 O13        -28.8820    21.5640     5.6600 o          1 A1A      -0.706000
     19 C14        -25.7430    23.4770     6.4380 ca         1 A1A      -0.096000
     20 C16        -25.7350    20.3080    10.6160 ca         1 A1A      -0.075000
     21 C18        -25.0110    23.9840     1.4810 ca         1 A1A      -0.116000
     22 C19        -25.1800    22.6080     1.6980 ca         1 A1A      -0.135000
     23 C23        -23.6540    20.0780     9.3990 ca         1 A1A      -0.129000
     24 H27        -25.1860    20.4680     5.6790 h1         1 A1A       0.075700
     25 H26        -26.8460    20.7090     5.1810 h1         1 A1A       0.075700
     26 H30        -23.6860    20.3940     7.2810 ha         1 A1A       0.100000
     27 H32        -25.5190    25.5410     7.0170 ha         1 A1A       0.106000
     28 H35        -24.9110    25.8980     2.4120 ha         1 A1A       0.100000
     29 H36        -25.1330    26.3120     4.6990 ha         1 A1A       0.098000
     30 H38        -26.5360    20.2320     3.2640 hc         1 A1A       0.043033
     31 H37        -25.3310    20.1540     2.0010 hc         1 A1A       0.043033
     32 H39        -24.8300    20.1010     3.6750 hc         1 A1A       0.043033
     33 H41        -23.8660    19.8110    11.5240 ha         1 A1A       0.087000
     34 H25        -28.5630    21.0160     9.7250 ha         1 A1A       0.211000
     35 H29        -25.9370    23.1760     7.4580 ha         1 A1A       0.136000
     36 H31        -26.2900    20.2860    11.5460 ha         1 A1A       0.099000
     37 H33        -24.8390    24.3550     0.4790 ha         1 A1A       0.099000
     38 H34        -25.1240    21.9410     0.8470 ha         1 A1A       0.096000
     39 H40        -22.5910    19.8720     9.4150 ha         1 A1A       0.087000
     40 C22        -25.5360    20.5650     2.9880 c3         1 A1A      -0.052800
@<TRIPOS>BOND
     1     1     2 1   
     2     1     3 1   
     3     1    12 1   
     4     2     4 1   
     5     2    24 1   
     6     2    25 1   
     7     3     5 ar  
     8     3     7 ar  
     9     4    14 ar  
    10     4    19 ar  
    11     5    13 1   
    12     5    20 ar  
    13     6    12 1   
    14     6    15 1   
    15     6    18 1   
    16     7    23 ar  
    17     7    26 1   
    18     8    10 ar  
    19     8    19 ar  
    20     8    27 1   
    21     9    17 ar  
    22     9    21 ar  
    23     9    28 1   
    24    10    17 ar  
    25    10    29 1   
    26    11    20 ar  
    27    11    23 ar  
    28    11    33 1   
    29    12    13 2   
    30    13    34 1   
    31    14    16 ar  
    32    14    17 ar  
    33    16    22 ar  
    34    16    40 1   
    35    19    35 1   
    36    20    36 1   
    37    21    22 ar  
    38    21    37 1   
    39    22    38 1   
    40    23    39 1   
    41    30    40 1   
    42    31    40 1   
    43    32    40 1   
@<TRIPOS>SUBSTRUCTURE
     1 A1A         1 TEMP              0 ****  ****    0 ROOT
