@<TRIPOS>MOLECULE
A1A
   51    54     1     0     0
SMALL
abcg2


@<TRIPOS>ATOM
      1 N1          29.0820     3.3500    22.6100 na         1 A1A      -0.073700
      2 C4          29.5660     2.2680    23.2960 ca         1 A1A      -0.072200
      3 C5          29.3680     2.5010    24.6710 ca         1 A1A      -0.072800
      4 C6          29.2610     3.5350    21.1940 c3         1 A1A       0.111900
      5 C8          27.3350     3.1930    27.9000 c          1 A1A       0.633100
      6 C17         32.5100     4.9020    17.6830 ca         1 A1A      -0.077000
      7 C21         31.5920     4.6220    16.7100 ca         1 A1A      -0.157000
      8 C24         29.7680     1.5280    25.5930 ca         1 A1A      -0.071000
      9 C26         25.9330     3.8650    26.0030 c3         1 A1A       0.096300
     10 C28         33.1580     5.0320    20.0540 ca         1 A1A      -0.116000
     11 C2          28.7740     3.7990    24.7880 cc         1 A1A      -0.205400
     12 C3          28.6150     4.2850    23.5140 cd         1 A1A      -0.057300
     13 C9          27.9560     5.5820    23.0860 c          1 A1A       0.723200
     14 N10         27.2090     3.7520    26.6810 n          1 A1A      -0.386800
     15 C11         30.6230     4.0620    20.8070 ca         1 A1A      -0.077300
     16 C12         30.9260     4.2400    19.4250 ca         1 A1A      -0.005000
     17 O13         28.3710     3.1020    28.5350 o          1 A1A      -0.574000
     18 C14         29.9860     3.9560    18.4050 ca         1 A1A      -0.134000
     19 O15         28.2580     6.5920    23.7440 o          1 A1A      -0.699500
     20 C16         32.2080     4.7260    19.0530 ca         1 A1A      -0.052000
     21 C18         30.3310     4.1540    17.1020 ca         1 A1A       0.155000
     22 O19         26.1650     2.7280    28.3540 os         1 A1A      -0.459100
     23 O20         27.1490     5.5020    22.1400 o          1 A1A      -0.699500
     24 F22         29.4340     3.8940    16.1380 f          1 A1A      -0.190000
     25 C23         30.1790     1.1090    22.8220 ca         1 A1A      -0.127000
     26 C25         31.5710     4.3810    21.7430 ca         1 A1A      -0.078000
     27 C27         32.8410     4.8660    21.3710 ca         1 A1A      -0.095000
     28 C29         26.1750     2.0910    29.6250 c3         1 A1A       0.174900
     29 C30         30.3630     0.3710    25.1280 ca         1 A1A      -0.158000
     30 C31         30.5680     0.1650    23.7550 ca         1 A1A      -0.125000
     31 H32         29.0810     2.5750    20.7020 h1         1 A1A       0.085700
     32 H33         28.4780     4.2050    20.8410 h1         1 A1A       0.085700
     33 H34         29.1640     4.4400    26.7830 h1         1 A1A       0.074200
     34 H35         28.0740     5.4780    25.8900 h1         1 A1A       0.074200
     35 H37         33.4910     5.2680    17.4070 ha         1 A1A       0.106000
     36 H39         31.8210     4.7580    15.6610 ha         1 A1A       0.120000
     37 H41         29.6260     1.6800    26.6560 ha         1 A1A       0.122000
     38 H44         25.3650     2.9390    26.0470 h1         1 A1A       0.043033
     39 H45         25.3200     4.6720    26.4100 h1         1 A1A       0.043033
     40 H43         26.1190     4.0800    24.9520 h1         1 A1A       0.043033
     41 H47         34.1320     5.4020    19.7590 ha         1 A1A       0.103000
     42 H36         28.9940     3.5900    18.6380 ha         1 A1A       0.138000
     43 H40         30.3500     0.9450    21.7650 ha         1 A1A       0.102000
     44 H42         31.3560     4.2610    22.7970 ha         1 A1A       0.144000
     45 H46         33.5630     5.1050    22.1410 ha         1 A1A       0.111000
     46 H48         25.1500     1.7810    29.8080 h1         1 A1A       0.035700
     47 H50         26.8190     1.2110    29.6340 h1         1 A1A       0.035700
     48 H49         26.4890     2.7700    30.4180 h1         1 A1A       0.035700
     49 H51         30.6810    -0.3890    25.8300 ha         1 A1A       0.091000
     50 H52         31.0420    -0.7480    23.4190 ha         1 A1A       0.089000
     51 C7          28.3430     4.4370    26.0680 c3         1 A1A       0.185200
@<TRIPOS>BOND
     1     1     2 1   
     2     1     4 1   
     3     1    12 1   
     4     2     3 ar  
     5     2    25 ar  
     6     3     8 ar  
     7     3    11 1   
     8     4    15 1   
     9     4    31 1   
    10     4    32 1   
    11     5    14 1   
    12     5    17 2   
    13     5    22 1   
    14     6     7 ar  
    15     6    20 ar  
    16     6    35 1   
    17     7    21 ar  
    18     7    36 1   
    19     8    29 ar  
    20     8    37 1   
    21     9    14 1   
    22     9    38 1   
    23     9    39 1   
    24     9    40 1   
    25    10    20 ar  
    26    10    27 ar  
    27    10    41 1   
    28    11    12 2   
    29    11    51 1   
    30    12    13 1   
    31    13    19 1   
    32    13    23 1   
    33    14    51 1   
    34    15    16 ar  
    35    15    26 ar  
    36    16    18 ar  
    37    16    20 ar  
    38    18    21 ar  
    39    18    42 1   
    40    21    24 1   
    41    22    28 1   
    42    25    30 ar  
    43    25    43 1   
    44    26    27 ar  
    45    26    44 1   
    46    27    45 1   
    47    28    46 1   
    48    28    47 1   
    49    28    48 1   
    50    29    30 ar  
    51    29    49 1   
    52    30    50 1   
    53    33    51 1   
    54    34    51 1   
@<TRIPOS>SUBSTRUCTURE
     1 A1A         1 TEMP              0 ****  ****    0 ROOT
