@<TRIPOS>MOLECULE
A1A
   45    47     1     0     0
SMALL
abcg2


@<TRIPOS>ATOM
      1 C14         19.3880     9.0150    30.3260 c3         1 A1A      -0.060900
      2 C17         15.6200    10.8070    32.5900 ca         1 A1A      -0.339500
      3 C21         15.6200     8.1910    31.5560 c3         1 A1A      -0.338100
      4 C10         23.8060    10.2020    32.9180 ca         1 A1A      -0.120000
      5 C11         23.2710     8.9800    32.5090 ca         1 A1A       0.164000
      6 C12         22.0820     8.8730    31.8350 ca         1 A1A      -0.106000
      7 C16         16.7050    11.5660    32.1080 ca         1 A1A       0.459000
      8 C22         15.2200    10.8830    33.9140 ca         1 A1A       0.060000
      9 C23         15.8990    11.6960    34.8100 ca         1 A1A      -0.194600
     10 C24         15.5050    11.8170    36.2340 c          1 A1A       0.612700
     11 C28         16.9850    12.4310    34.3450 ca         1 A1A       0.035000
     12 C29         17.3800    12.3760    33.0250 ca         1 A1A      -0.204000
     13 C4          19.7650    11.4980    30.8160 cc         1 A1A      -0.311500
     14 C5          20.1270    10.1890    30.8690 cd         1 A1A       0.091600
     15 C6          21.3820    10.0540    31.5580 ca         1 A1A      -0.082800
     16 C7          21.9100    11.2880    31.9700 ca         1 A1A      -0.166000
     17 C9          23.1250    11.3690    32.6490 ca         1 A1A      -0.063000
     18 N15         17.0740    11.4790    30.7790 nu         1 A1A      -0.952100
     19 O19         14.6850    10.2420    30.1900 o          1 A1A      -0.522000
     20 O2          18.2680    11.7480    28.6580 o          1 A1A      -0.519500
     21 O20         13.4020     9.4490    32.1950 o          1 A1A      -0.522000
     22 O25         16.0960    12.5020    37.0320 o          1 A1A      -0.486000
     23 O26         14.4370    11.0940    36.5250 os         1 A1A      -0.440100
     24 O3          18.4240    13.6160    30.3270 o          1 A1A      -0.519500
     25 S1          18.3670    12.1970    30.0310 sy         1 A1A       1.219200
     26 S8          20.8870    12.6100    31.5370 ss         1 A1A       0.205400
     27 H1          20.0310     8.4500    29.6510 hc         1 A1A       0.061033
     28 H2          19.1030     8.3450    31.1390 hc         1 A1A       0.061033
     29 H3          18.4910     9.2870    29.7790 hc         1 A1A       0.061033
     30 H4          15.6760     7.8080    32.5730 h1         1 A1A       0.105033
     31 H5          15.0920     7.4860    30.9140 h1         1 A1A       0.105033
     32 H6          16.6170     8.3760    31.1640 h1         1 A1A       0.105033
     33 H7          24.7520    10.2270    33.4440 ha         1 A1A       0.138000
     34 H8          21.7020     7.9060    31.5300 ha         1 A1A       0.137000
     35 H9          14.3730    10.2970    34.2430 ha         1 A1A       0.157000
     36 H10         13.0810    10.4850    37.8860 h1         1 A1A       0.051367
     37 H11         14.6950    10.7720    38.5710 h1         1 A1A       0.051367
     38 H12         13.6510    12.1460    38.1460 h1         1 A1A       0.051367
     39 H13         17.5290    13.0760    35.0210 ha         1 A1A       0.144000
     40 H14         18.2070    12.9980    32.7200 ha         1 A1A       0.141000
     41 H15         23.5290    12.3220    32.9610 ha         1 A1A       0.132000
     42 H16         16.4110    11.0500    30.1330 hn         1 A1A       0.555000
     43 F13         23.9630     7.8670    32.7920 f          1 A1A      -0.173000
     44 S18         14.6850     9.7000    31.5530 sy         1 A1A       1.063500
     45 C27         13.9490    11.1370    37.8660 c3         1 A1A       0.154900
@<TRIPOS>BOND
     1     1    14 1   
     2     1    27 1   
     3     1    28 1   
     4     1    29 1   
     5     2     7 ar  
     6     2     8 ar  
     7     2    44 1   
     8     3    30 1   
     9     3    31 1   
    10     3    32 1   
    11     3    44 1   
    12     4     5 ar  
    13     4    17 ar  
    14     4    33 1   
    15     5     6 ar  
    16     5    43 1   
    17     6    15 ar  
    18     6    34 1   
    19     7    12 ar  
    20     7    18 1   
    21     8     9 ar  
    22     8    35 1   
    23     9    10 1   
    24     9    11 ar  
    25    10    22 2   
    26    10    23 1   
    27    11    12 ar  
    28    11    39 1   
    29    12    40 1   
    30    13    14 2   
    31    13    25 1   
    32    13    26 1   
    33    14    15 1   
    34    15    16 ar  
    35    16    17 ar  
    36    16    26 1   
    37    17    41 1   
    38    18    25 1   
    39    18    42 1   
    40    19    44 2   
    41    20    25 2   
    42    21    44 2   
    43    23    45 1   
    44    24    25 2   
    45    36    45 1   
    46    37    45 1   
    47    38    45 1   
@<TRIPOS>SUBSTRUCTURE
     1 A1A         1 TEMP              0 ****  ****    0 ROOT
