@<TRIPOS>MOLECULE
A1A
   57    60     1     0     0
SMALL
abcg2


@<TRIPOS>ATOM
      1 C4         -28.3350    19.3680     7.0580 c2         1 A1A       0.105900
      2 C6         -27.3140    21.7410     7.2190 c3         1 A1A       0.118000
      3 C7         -26.2680    23.4620     5.5880 cc         1 A1A      -0.121400
      4 C10        -29.7030    18.7680     6.8600 c5         1 A1A       0.103900
      5 C13        -25.2730    24.2930     3.3200 ca         1 A1A      -0.100000
      6 C17        -26.1770    24.6460     6.5050 c3         1 A1A       0.013500
      7 C20        -25.2540    22.5460     1.6160 ca         1 A1A      -0.132000
      8 C22        -26.6250    21.0870     9.5350 ca         1 A1A      -0.097500
      9 C24        -24.7230    25.0360     6.7760 c3         1 A1A      -0.084100
     10 C28        -25.7010    20.6670    10.4780 ca         1 A1A      -0.113000
     11 C1         -28.3850    20.7090     7.0320 ce         1 A1A      -0.257400
     12 C2         -26.7580    22.2200     5.9110 cd         1 A1A      -0.038300
     13 C3         -29.7790    21.0960     6.7570 c          1 A1A       0.574200
     14 N5         -30.5040    19.9510     6.6960 ns         1 A1A      -0.517900
     15 N8         -26.6450    21.3840     4.8340 na         1 A1A      -0.211700
     16 C9         -25.8390    23.3800     4.2220 ca         1 A1A      -0.065800
     17 C11        -26.0950    22.0600     3.7860 ca         1 A1A      -0.065200
     18 O12        -30.2080    22.2300     6.6110 o          1 A1A      -0.532000
     19 C14        -26.2520    21.2890     8.2070 ca         1 A1A      -0.071300
     20 O15        -27.2560    18.6250     7.2620 oh         1 A1A      -0.496100
     21 C16        -25.8070    21.6330     2.4930 ca         1 A1A      -0.105000
     22 C18        -30.1470    17.8680     8.0280 c3         1 A1A      -0.063700
     23 C19        -25.0040    23.8490     2.0480 ca         1 A1A       0.131000
     24 F21        -24.4740    24.7150     1.1570 f          1 A1A      -0.190000
     25 C23        -24.9290    21.0700     7.8470 ca         1 A1A      -0.097500
     26 C25        -26.9890    25.8360     5.9900 c3         1 A1A      -0.084100
     27 C27        -31.5380    17.3030     7.7600 c3         1 A1A      -0.092100
     28 C29        -23.9980    20.6500     8.7910 ca         1 A1A      -0.113000
     29 C30        -24.3790    20.4440    10.1080 ca         1 A1A      -0.110000
     30 H32        -27.8110    22.6070     7.6720 hc         1 A1A       0.096700
     31 H34        -29.7090    18.1670     5.9410 h1         1 A1A       0.061700
     32 H35        -25.0530    25.3150     3.5980 ha         1 A1A       0.133000
     33 H38        -26.6140    24.3560     7.4650 hc         1 A1A       0.046700
     34 H40        -25.0150    22.2600     0.6000 ha         1 A1A       0.127000
     35 H41        -27.6540    21.2570     9.8340 ha         1 A1A       0.116500
     36 H44        -24.6690    25.8620     7.4880 hc         1 A1A       0.033867
     37 H43        -24.1640    24.1970     7.1910 hc         1 A1A       0.033867
     38 H45        -24.2150    25.3550     5.8640 hc         1 A1A       0.033867
     39 H49        -30.4160    17.9120    10.1670 hc         1 A1A       0.042867
     40 H50        -29.0800    18.9150     9.6220 hc         1 A1A       0.042867
     41 H51        -30.7440    19.4540     9.3860 hc         1 A1A       0.042867
     42 H55        -26.0110    20.5160    11.5040 ha         1 A1A       0.111000
     43 H31        -31.4630    19.9260     6.3890 hn         1 A1A       0.337500
     44 H33        -26.9660    20.4310     4.8050 hn         1 A1A       0.349000
     45 H36        -27.4480    17.6830     7.1780 ho         1 A1A       0.472000
     46 H37        -26.0090    20.6170     2.1760 ha         1 A1A       0.113000
     47 H39        -29.4530    17.0210     8.0540 hc         1 A1A       0.041700
     48 H42        -24.6070    21.2240     6.8250 ha         1 A1A       0.116500
     49 H46        -26.9680    26.6560     6.7100 hc         1 A1A       0.033867
     50 H48        -26.5970    26.2200     5.0470 hc         1 A1A       0.033867
     51 H47        -28.0310    25.5580     5.8280 hc         1 A1A       0.033867
     52 H54        -31.8080    16.5790     8.5280 hc         1 A1A       0.042867
     53 H52        -32.2980    18.0870     7.7700 hc         1 A1A       0.042867
     54 H53        -31.5870    16.7980     6.7940 hc         1 A1A       0.042867
     55 H56        -22.9710    20.4820     8.4910 ha         1 A1A       0.111000
     56 H57        -23.6550    20.1160    10.8430 ha         1 A1A       0.111000
     57 C26        -30.0880    18.5820     9.3720 c3         1 A1A      -0.092100
@<TRIPOS>BOND
     1     1     4 1   
     2     1    11 2   
     3     1    20 1   
     4     2    11 1   
     5     2    12 1   
     6     2    19 1   
     7     2    30 1   
     8     3     6 1   
     9     3    12 2   
    10     3    16 1   
    11     4    14 1   
    12     4    22 1   
    13     4    31 1   
    14     5    16 ar  
    15     5    23 ar  
    16     5    32 1   
    17     6     9 1   
    18     6    26 1   
    19     6    33 1   
    20     7    21 ar  
    21     7    23 ar  
    22     7    34 1   
    23     8    10 ar  
    24     8    19 ar  
    25     8    35 1   
    26     9    36 1   
    27     9    37 1   
    28     9    38 1   
    29    10    29 ar  
    30    10    42 1   
    31    11    13 1   
    32    12    15 1   
    33    13    14 1   
    34    13    18 2   
    35    14    43 1   
    36    15    17 1   
    37    15    44 1   
    38    16    17 ar  
    39    17    21 ar  
    40    19    25 ar  
    41    20    45 1   
    42    21    46 1   
    43    22    27 1   
    44    22    47 1   
    45    22    57 1   
    46    23    24 1   
    47    25    28 ar  
    48    25    48 1   
    49    26    49 1   
    50    26    50 1   
    51    26    51 1   
    52    27    52 1   
    53    27    53 1   
    54    27    54 1   
    55    28    29 ar  
    56    28    55 1   
    57    29    56 1   
    58    39    57 1   
    59    40    57 1   
    60    41    57 1   
@<TRIPOS>SUBSTRUCTURE
     1 A1A         1 TEMP              0 ****  ****    0 ROOT
