@<TRIPOS>MOLECULE
A1A
   47    49     1     0     0
SMALL
abcg2


@<TRIPOS>ATOM
      1 C10         -3.4990   -10.0570    19.3380 cc         1 A1A      -0.258000
      2 C13         -3.8600    -6.4450    18.0100 ca         1 A1A      -0.119500
      3 C15         -3.1630    -4.1650    17.6370 ca         1 A1A      -0.126000
      4 C17         -4.6390    -2.6040    16.4190 ca         1 A1A      -0.136000
      5 C20         -6.5640    -4.6360    16.1640 ca         1 A1A       0.163100
      6 C22         -8.6220    -5.5180    15.3570 c3         1 A1A       0.127600
      7 C26         -5.3360    -4.9150    16.8400 ca         1 A1A      -0.059000
      8 C02         -0.7090    -9.2490    21.4230 c          1 A1A       0.607100
      9 C04         -0.4330    -7.1260    22.5740 c3         1 A1A      -0.060000
     10 C05         -1.7540    -6.9380    23.3650 c          1 A1A       0.711000
     11 C09         -2.3380    -9.3660    19.4910 cd         1 A1A       0.325300
     12 C12         -3.5420    -7.7630    18.5520 cc         1 A1A       0.497900
     13 C14         -2.9080    -5.4050    18.1430 ca         1 A1A      -0.043000
     14 C16         -4.3760    -3.8800    16.9660 ca         1 A1A      -0.000000
     15 C18         -5.8160    -2.3780    15.7630 ca         1 A1A      -0.075000
     16 C19         -6.7870    -3.3900    15.6280 ca         1 A1A      -0.231000
     17 C23         -9.4010    -6.8110    15.4750 c3         1 A1A       0.158600
     18 C25         -8.4310    -8.0450    13.7100 c3         1 A1A       0.140900
     19 C27         -5.0520    -6.1900    17.3700 ca         1 A1A      -0.068000
     20 N03         -0.5510    -7.9200    21.3780 ns         1 A1A      -0.452900
     21 N28         -2.3810    -8.0800    19.0400 nd         1 A1A      -0.650000
     22 O01         -0.5230    -9.9200    22.4280 o          1 A1A      -0.622100
     23 O06         -1.6270    -6.2900    24.4220 o          1 A1A      -0.729000
     24 O07         -2.7900    -7.4260    22.8850 o          1 A1A      -0.729000
     25 O21         -7.4320    -5.6560    16.1110 os         1 A1A      -0.330100
     26 O24         -8.6930    -7.9580    15.0900 os         1 A1A      -0.432000
     27 S11         -4.6860    -9.0610    18.6100 ss         1 A1A      -0.036400
     28 H1          -3.7100   -11.0790    19.6120 h4         1 A1A       0.158000
     29 H2          -2.4280    -3.3770    17.7440 ha         1 A1A       0.115000
     30 H3          -3.9000    -1.8200    16.5220 ha         1 A1A       0.113000
     31 H4          -8.3840    -5.2770    14.3150 h1         1 A1A       0.035700
     32 H5          -9.2460    -4.7050    15.7460 h1         1 A1A       0.035700
     33 H6           0.3200    -7.5620    23.2320 h1         1 A1A       0.032700
     34 H7          -0.0540    -6.1440    22.2860 h1         1 A1A       0.032700
     35 H8          -1.1770   -10.9740    20.2590 hc         1 A1A       0.059700
     36 H9          -0.2540    -9.7550    19.3890 hc         1 A1A       0.059700
     37 H10         -1.9740    -5.6010    18.6510 ha         1 A1A       0.144000
     38 H11         -6.0210    -1.4050    15.3360 ha         1 A1A       0.102000
     39 H12         -7.7050    -3.1600    15.1050 ha         1 A1A       0.106000
     40 H13        -10.3250    -6.6910    14.8910 h1         1 A1A       0.053200
     41 H14         -9.6940    -6.9630    16.5160 h1         1 A1A       0.053200
     42 H15         -7.9980    -9.0270    13.5190 h1         1 A1A       0.027700
     43 H16         -9.3450    -7.9500    13.1120 h1         1 A1A       0.027700
     44 H17         -7.7190    -7.2900    13.3610 h1         1 A1A       0.027700
     45 H18         -5.7870    -6.9770    17.2510 ha         1 A1A       0.132000
     46 H19         -0.8560    -7.4490    20.5380 hn         1 A1A       0.308500
     47 C08         -1.0790    -9.9030    20.0930 c3         1 A1A      -0.199700
@<TRIPOS>BOND
     1     1    11 2   
     2     1    27 1   
     3     1    28 1   
     4     2    12 1   
     5     2    13 ar  
     6     2    19 ar  
     7     3    13 ar  
     8     3    14 ar  
     9     3    29 1   
    10     4    14 ar  
    11     4    15 ar  
    12     4    30 1   
    13     5     7 ar  
    14     5    16 ar  
    15     5    25 1   
    16     6    17 1   
    17     6    25 1   
    18     6    31 1   
    19     6    32 1   
    20     7    14 ar  
    21     7    19 ar  
    22     8    20 1   
    23     8    22 2   
    24     8    47 1   
    25     9    10 1   
    26     9    20 1   
    27     9    33 1   
    28     9    34 1   
    29    10    23 1   
    30    10    24 1   
    31    11    21 1   
    32    11    47 1   
    33    12    21 2   
    34    12    27 1   
    35    13    37 1   
    36    15    16 ar  
    37    15    38 1   
    38    16    39 1   
    39    17    26 1   
    40    17    40 1   
    41    17    41 1   
    42    18    26 1   
    43    18    42 1   
    44    18    43 1   
    45    18    44 1   
    46    19    45 1   
    47    20    46 1   
    48    35    47 1   
    49    36    47 1   
@<TRIPOS>SUBSTRUCTURE
     1 A1A         1 TEMP              0 ****  ****    0 ROOT
