@<TRIPOS>MOLECULE
A1A
   92    97     1     0     0
SMALL
abcg2


@<TRIPOS>ATOM
      1 N1         -34.1940   -12.9480    -9.0690 nc         1 A1A      -0.521800
      2 N3         -38.2590    -7.7110    -5.0920 nv         1 A1A      -1.054900
      3 C4         -36.4110   -10.8420    -7.0390 ca         1 A1A      -0.109000
      4 C5         -36.2000    -9.4910    -7.2980 ca         1 A1A       0.419900
      5 C6         -37.6980    -8.7750    -5.7130 ca         1 A1A       0.649900
      6 C7         -37.9800   -10.1140    -5.3410 ca         1 A1A      -0.279600
      7 C8         -37.3270   -11.1230    -6.0270 ca         1 A1A      -0.012000
      8 C10        -39.6140   -11.9550    -2.4740 c5         1 A1A       0.079700
      9 C13        -38.1270   -11.8570    -0.6040 c5         1 A1A      -0.079400
     10 C17        -43.2670   -12.2510    -0.1110 ca         1 A1A      -0.091500
     11 C20        -44.3550   -10.8670     2.0200 ca         1 A1A      -0.104000
     12 C21        -43.2610   -10.3520     1.3380 ca         1 A1A      -0.091500
     13 C22        -46.0970   -12.6270     2.3610 cp         1 A1A      -0.033000
     14 C24        -47.3630   -14.5090     3.2110 ca         1 A1A      -0.101000
     15 C26        -48.1820   -12.3000     3.5540 ca         1 A1A      -0.101000
     16 N          -35.1630   -13.7880    -8.7270 na         1 A1A       0.135800
     17 C          -35.1410   -15.1520    -9.1980 c3         1 A1A       0.072900
     18 C1         -36.1020   -13.2040    -7.9650 cc         1 A1A      -0.167000
     19 C11        -39.3150   -13.4100    -2.0810 c5         1 A1A      -0.087400
     20 C12        -38.3620   -13.3500    -0.8650 c5         1 A1A      -0.076400
     21 C14        -39.3570   -11.1670    -1.1730 c5         1 A1A       0.149300
     22 C16        -42.7050   -11.0320     0.2620 ca         1 A1A      -0.082300
     23 C18        -44.3600   -12.7650     0.5650 ca         1 A1A      -0.104000
     24 C19        -44.9270   -12.0820     1.6450 cp         1 A1A      -0.027000
     25 C2         -35.7230   -11.8860    -7.7900 cd         1 A1A      -0.141000
     26 C23        -46.2630   -14.0020     2.5420 ca         1 A1A      -0.105000
     27 C25        -48.3470   -13.6690     3.7340 ca         1 A1A      -0.075300
     28 C27        -47.0810   -11.7880     2.8800 ca         1 A1A      -0.105000
     29 C29        -50.4930   -14.7560     3.2630 c3         1 A1A      -0.102600
     30 C3         -34.5150   -11.7960    -8.5120 cd         1 A1A       0.248900
     31 C30        -50.3610   -13.2350     5.2240 c3         1 A1A      -0.102600
     32 C31        -50.1420   -16.3600     5.6410 c6         1 A1A       0.175800
     33 C32        -49.4760   -17.5910     6.2310 c6         1 A1A       0.163800
     34 C33        -48.0140   -18.3870     7.9660 c3         1 A1A       0.038800
     35 C34        -47.4950   -18.0460     9.3380 c          1 A1A       0.574900
     36 C35        -47.6330   -16.2600     6.9350 c6         1 A1A       0.163800
     37 C36        -48.3110   -15.0370     6.3500 c6         1 A1A       0.175800
     38 C9         -38.9730   -10.4210    -4.2740 c          1 A1A       0.631700
     39 N2         -36.8070    -8.5020    -6.6670 nb         1 A1A      -0.759000
     40 N4         -38.7250   -11.5120    -3.5300 ns         1 A1A      -0.495900
     41 N5         -49.1320   -15.4120     5.2130 n3         1 A1A      -0.746600
     42 N6         -48.6240   -17.2370     7.3500 n3         1 A1A      -0.719600
     43 O1         -40.4270   -11.3600    -0.2730 os         1 A1A      -0.451000
     44 O2         -46.5760   -18.6030     9.8820 o          1 A1A      -0.518100
     45 H33        -38.1240    -6.8150    -5.5300 hn         1 A1A       0.496500
     46 H32        -39.1290    -7.8470    -4.6050 hn         1 A1A       0.496500
     47 H51        -35.5060    -9.1910    -8.0770 h4         1 A1A       0.020100
     48 H81        -37.5390   -12.1580    -5.7810 ha         1 A1A       0.110000
     49 H101       -40.6400   -11.8370    -2.8250 h1         1 A1A       0.081700
     50 H131       -37.9690   -11.6170     0.4490 hc         1 A1A       0.054700
     51 H132       -37.2470   -11.5050    -1.1460 hc         1 A1A       0.054700
     52 H151       -41.7600   -10.4040    -1.5460 h1         1 A1A       0.038200
     53 H152       -41.2800    -9.4780    -0.1280 h1         1 A1A       0.038200
     54 H171       -42.8580   -12.8000    -0.9520 ha         1 A1A       0.113500
     55 H201       -44.7490   -10.3210     2.8690 ha         1 A1A       0.113500
     56 H211       -42.8310    -9.4100     1.6560 ha         1 A1A       0.113500
     57 H241       -47.4530   -15.5780     3.3510 ha         1 A1A       0.119500
     58 H261       -48.9170   -11.6020     3.9330 ha         1 A1A       0.119500
     59 HC3        -35.2470   -15.1850   -10.2810 h1         1 A1A       0.057033
     60 HC1        -34.2060   -15.6310    -8.9150 h1         1 A1A       0.057033
     61 HC2        -35.9670   -15.6940    -8.7460 h1         1 A1A       0.057033
     62 H11        -36.9640   -13.7490    -7.6140 h4         1 A1A       0.152000
     63 H111       -40.2460   -13.9100    -1.8180 hc         1 A1A       0.050700
     64 H112       -38.8940   -13.9660    -2.9200 hc         1 A1A       0.050700
     65 H121       -38.8230   -13.8250     0.0010 hc         1 A1A       0.048200
     66 H122       -37.4270   -13.8760    -1.0520 hc         1 A1A       0.048200
     67 H141       -39.1930   -10.0980    -1.3600 h1         1 A1A       0.060700
     68 H181       -44.7920   -13.7010     0.2330 ha         1 A1A       0.113500
     69 H231       -45.5120   -14.6900     2.1740 ha         1 A1A       0.113500
     70 H271       -47.0050   -10.7160     2.7460 ha         1 A1A       0.113500
     71 H292       -51.4740   -15.0690     3.6240 hc         1 A1A       0.041033
     72 H293       -50.6560   -13.9410     2.5590 hc         1 A1A       0.041033
     73 H291       -50.0420   -15.5870     2.7180 hc         1 A1A       0.041033
     74 H31        -33.8700   -10.9370    -8.6290 h4         1 A1A       0.039100
     75 H302       -51.1750   -13.7210     5.7640 hc         1 A1A       0.041033
     76 H301       -49.7340   -12.7220     5.9540 hc         1 A1A       0.041033
     77 H303       -50.8130   -12.4770     4.5840 hc         1 A1A       0.041033
     78 H312       -50.7390   -16.6880     4.7920 h1         1 A1A       0.041450
     79 H311       -50.8350   -15.9350     6.3850 h1         1 A1A       0.041450
     80 H321       -50.2480   -18.2830     6.5760 h1         1 A1A       0.039450
     81 H322       -48.9080   -18.1010     5.4350 h1         1 A1A       0.039450
     82 H332       -47.2170   -18.8520     7.3640 h1         1 A1A       0.059200
     83 H331       -48.7810   -19.1560     8.1200 h1         1 A1A       0.059200
     84 H341       -48.0610   -17.2370     9.8380 h4         1 A1A      -0.000800
     85 H352       -46.9350   -16.6850     6.1950 h1         1 A1A       0.039450
     86 H351       -47.0380   -15.9510     7.8000 h1         1 A1A       0.039450
     87 H361       -48.8970   -14.5510     7.1450 h1         1 A1A       0.041450
     88 H362       -47.5420   -14.3300     6.0360 h1         1 A1A       0.041450
     89 H41        -37.8400   -11.9830    -3.6310 hn         1 A1A       0.319500
     90 C15        -41.5190   -10.4900    -0.4790 c3         1 A1A       0.200900
     91 O          -39.9630    -9.7180    -4.0920 o          1 A1A      -0.638100
     92 C28        -49.5830   -14.2730     4.4020 c3         1 A1A       0.262500
@<TRIPOS>BOND
     1     1    16 1   
     2     1    30 2   
     3     2     5 1   
     4     2    45 1   
     5     2    46 1   
     6     3     4 ar  
     7     3     7 ar  
     8     3    25 1   
     9     4    39 ar  
    10     4    47 1   
    11     5     6 ar  
    12     5    39 ar  
    13     6     7 ar  
    14     6    38 1   
    15     7    48 1   
    16     8    19 1   
    17     8    21 1   
    18     8    40 1   
    19     8    49 1   
    20     9    20 1   
    21     9    21 1   
    22     9    50 1   
    23     9    51 1   
    24    10    22 ar  
    25    10    23 ar  
    26    10    54 1   
    27    11    12 ar  
    28    11    24 ar  
    29    11    55 1   
    30    12    22 ar  
    31    12    56 1   
    32    13    24 1   
    33    13    26 ar  
    34    13    28 ar  
    35    14    26 ar  
    36    14    27 ar  
    37    14    57 1   
    38    15    27 ar  
    39    15    28 ar  
    40    15    58 1   
    41    16    17 1   
    42    16    18 1   
    43    17    59 1   
    44    17    60 1   
    45    17    61 1   
    46    18    25 2   
    47    18    62 1   
    48    19    20 1   
    49    19    63 1   
    50    19    64 1   
    51    20    65 1   
    52    20    66 1   
    53    21    43 1   
    54    21    67 1   
    55    22    90 1   
    56    23    24 ar  
    57    23    68 1   
    58    25    30 1   
    59    26    69 1   
    60    27    92 1   
    61    28    70 1   
    62    29    71 1   
    63    29    72 1   
    64    29    73 1   
    65    29    92 1   
    66    30    74 1   
    67    31    75 1   
    68    31    76 1   
    69    31    77 1   
    70    31    92 1   
    71    32    33 1   
    72    32    41 1   
    73    32    78 1   
    74    32    79 1   
    75    33    42 1   
    76    33    80 1   
    77    33    81 1   
    78    34    35 1   
    79    34    42 1   
    80    34    82 1   
    81    34    83 1   
    82    35    44 2   
    83    35    84 1   
    84    36    37 1   
    85    36    42 1   
    86    36    85 1   
    87    36    86 1   
    88    37    41 1   
    89    37    87 1   
    90    37    88 1   
    91    38    40 1   
    92    38    91 2   
    93    40    89 1   
    94    41    92 1   
    95    43    90 1   
    96    52    90 1   
    97    53    90 1   
@<TRIPOS>SUBSTRUCTURE
     1 A1A         1 TEMP              0 ****  ****    0 ROOT
