@<TRIPOS>MOLECULE
A1A
   57    60     1     0     0
SMALL
abcg2


@<TRIPOS>ATOM
      1 C10        147.7860   152.0650   112.7800 c          1 A1A       0.645100
      2 C01        146.5940   148.6390   113.1380 c6         1 A1A       0.154300
      3 C02        145.8930   147.5230   112.3680 c3         1 A1A       0.004800
      4 C03        146.4620   149.9900   112.4470 c6         1 A1A       0.074000
      5 C04        144.4290   147.7000   112.1870 cc         1 A1A      -0.145300
      6 C05        146.5920   151.0470   114.6320 c6         1 A1A       0.068000
      7 C06        146.7080   149.6610   115.2370 c6         1 A1A       0.144600
      8 C07        143.6990   148.1950   111.1340 cd         1 A1A       0.110400
      9 C08        142.2440   147.7120   112.6060 cc         1 A1A      -0.066000
     10 C09        144.2280   148.6750   109.8500 ca         1 A1A      -0.081800
     11 C11        143.6070   146.8270   114.3730 cc         1 A1A      -0.088000
     12 C12        141.0880   147.4780   113.3800 cc         1 A1A      -0.084000
     13 C13        141.1970   146.9270   114.6240 cd         1 A1A      -0.062300
     14 C14        142.4960   146.5930   115.1100 cd         1 A1A      -0.151000
     15 C15        144.1460   150.0110   109.4780 ca         1 A1A       0.208000
     16 C16        144.8130   147.8280   108.9200 ca         1 A1A       0.208000
     17 C17        140.0000   146.6640   115.4820 c3         1 A1A      -0.046800
     18 C18        144.6130   150.4940   108.2760 ca         1 A1A      -0.142500
     19 C19        145.2840   148.2550   107.6950 ca         1 A1A      -0.142500
     20 C20        145.1720   149.6010   107.3680 ca         1 A1A      -0.095600
     21 C21        148.7850   152.9820   110.8590 c3         1 A1A       0.168900
     22 C22        145.6770   150.1530   106.0680 c          1 A1A       0.607700
     23 C23        146.1300   149.7080   103.7170 c3         1 A1A       0.092300
     24 F01        143.6090   150.8710   110.3490 f          1 A1A      -0.161500
     25 F02        144.9280   146.5330   109.2290 f          1 A1A      -0.161500
     26 N01        147.0800   151.0180   113.2660 n          1 A1A      -0.405800
     27 N02        143.4810   147.3840   113.1330 na         1 A1A       0.143100
     28 N03        142.3660   148.2100   111.3910 nd         1 A1A      -0.270600
     29 N04        145.6690   149.3110   105.0270 ns         1 A1A      -0.500900
     30 O01        146.0610   148.6920   114.4420 os         1 A1A      -0.460000
     31 O02        148.0390   151.9400   111.4750 os         1 A1A      -0.453100
     32 O03        148.1650   153.0090   113.4450 o          1 A1A      -0.541000
     33 O04        146.0650   151.3100   105.9890 o          1 A1A      -0.592100
     34 H1         147.6650   148.3880   113.1860 h1         1 A1A       0.046700
     35 H2         146.1080   146.5690   112.8590 hc         1 A1A       0.066200
     36 H3         146.3640   147.4570   111.3860 hc         1 A1A       0.066200
     37 H4         145.4040   150.2310   112.2990 h1         1 A1A       0.069200
     38 H5         146.9340   149.9350   111.4700 h1         1 A1A       0.069200
     39 H6         147.1770   151.7480   115.2230 h1         1 A1A       0.067700
     40 H7         145.5480   151.3810   114.6500 h1         1 A1A       0.067700
     41 H8         146.2340   149.6450   116.2190 h1         1 A1A       0.054200
     42 H9         147.7680   149.4050   115.3650 h1         1 A1A       0.054200
     43 H10        144.6030   146.5950   114.7120 h4         1 A1A       0.155000
     44 H11        140.1280   147.7450   112.9600 ha         1 A1A       0.142000
     45 H12        142.6090   146.1480   116.0890 ha         1 A1A       0.129000
     46 H13        139.9350   145.6080   115.7500 hc         1 A1A       0.047033
     47 H14        140.0600   147.2250   116.4160 hc         1 A1A       0.047033
     48 H15        139.0770   146.9450   114.9780 hc         1 A1A       0.047033
     49 H16        144.5360   151.5490   108.0470 ha         1 A1A       0.147500
     50 H17        145.7460   147.5360   107.0300 ha         1 A1A       0.147500
     51 H18        148.8750   152.7030   109.8130 h1         1 A1A       0.049033
     52 H19        148.2740   153.9420   110.9290 h1         1 A1A       0.049033
     53 H20        149.7820   153.0760   111.2900 h1         1 A1A       0.049033
     54 H21        146.1140   148.8360   103.0700 h1         1 A1A       0.042700
     55 H22        145.4940   150.4770   103.2760 h1         1 A1A       0.042700
     56 H23        147.1500   150.0880   103.7580 h1         1 A1A       0.042700
     57 H24        145.2170   148.4160   105.1120 hn         1 A1A       0.320500
@<TRIPOS>BOND
     1     1    26 1   
     2     1    31 1   
     3     1    32 2   
     4     2     3 1   
     5     2     4 1   
     6     2    30 1   
     7     2    34 1   
     8     3     5 1   
     9     3    35 1   
    10     3    36 1   
    11     4    26 1   
    12     4    37 1   
    13     4    38 1   
    14     5     8 2   
    15     5    27 1   
    16     6     7 1   
    17     6    26 1   
    18     6    39 1   
    19     6    40 1   
    20     7    30 1   
    21     7    41 1   
    22     7    42 1   
    23     8    10 1   
    24     8    28 1   
    25     9    12 1   
    26     9    27 1   
    27     9    28 2   
    28    10    15 ar  
    29    10    16 ar  
    30    11    14 2   
    31    11    27 1   
    32    11    43 1   
    33    12    13 2   
    34    12    44 1   
    35    13    14 1   
    36    13    17 1   
    37    14    45 1   
    38    15    18 ar  
    39    15    24 1   
    40    16    19 ar  
    41    16    25 1   
    42    17    46 1   
    43    17    47 1   
    44    17    48 1   
    45    18    20 ar  
    46    18    49 1   
    47    19    20 ar  
    48    19    50 1   
    49    20    22 1   
    50    21    31 1   
    51    21    51 1   
    52    21    52 1   
    53    21    53 1   
    54    22    29 1   
    55    22    33 2   
    56    23    29 1   
    57    23    54 1   
    58    23    55 1   
    59    23    56 1   
    60    29    57 1   
@<TRIPOS>SUBSTRUCTURE
     1 A1A         1 TEMP              0 ****  ****    0 ROOT
