@<TRIPOS>MOLECULE
A1A
   46    48     1     0     0
SMALL
abcg2


@<TRIPOS>ATOM
      1 C02         -2.1530     0.2540     0.5580 c          1 A1A       0.648100
      2 C03         -3.5210     0.8320     0.5220 cx         1 A1A      -0.243700
      3 C04         -4.4780     0.7450     1.6980 cx         1 A1A      -0.055000
      4 C05         -4.0670     0.0460     2.9720 c3         1 A1A      -0.068600
      5 C06         -5.3210     1.9720     1.9570 c3         1 A1A      -0.068600
      6 C07         -4.7240    -0.0910     0.4770 cx         1 A1A      -0.034500
      7 C08         -5.8080     0.1840    -0.4850 c2         1 A1A      -0.209200
      8 C09         -6.5430    -0.7190    -1.1430 c2         1 A1A      -0.090400
      9 C10         -7.6080    -0.2830    -2.1060 c3         1 A1A      -0.059900
     10 C11         -6.4000    -2.2060    -1.0140 c3         1 A1A      -0.059900
     11 C13          0.1710     1.0090     0.0270 ca         1 A1A       0.514900
     12 C15          2.0490    -0.2530     0.2400 ca         1 A1A       0.487200
     13 C17          2.8970     0.7320    -0.2520 cp         1 A1A      -0.207500
     14 C18          4.3620     0.6200    -0.4060 cp         1 A1A       0.196500
     15 C20          6.3790     0.0530     0.4410 ca         1 A1A       0.111400
     16 C21          7.0050     0.4940    -0.7120 ca         1 A1A      -0.219000
     17 C22          6.1810     1.0200    -1.6920 ca         1 A1A       0.111400
     18 C24          2.2640     1.9170    -0.6400 ca         1 A1A      -0.009000
     19 C25          0.9080     2.0760    -0.5010 ca         1 A1A      -0.226000
     20 N12         -1.1930     1.1650     0.1700 ns         1 A1A      -0.327900
     21 N14          0.7510    -0.1260     0.3750 nb         1 A1A      -0.677000
     22 N19          5.0650     0.1180     0.6010 nb         1 A1A      -0.162000
     23 N23          4.8640     1.0840    -1.5450 nb         1 A1A      -0.162000
     24 O01         -1.9040    -0.8870     0.8840 o          1 A1A      -0.522100
     25 BR16         2.6990    -1.9750     0.7000 br         1 A1A      -0.134200
     26 H1          -3.6130     1.7470    -0.0560 hc         1 A1A       0.082700
     27 H2          -3.4390     0.6960     3.5850 hc         1 A1A       0.044033
     28 H3          -4.9570    -0.1960     3.5560 hc         1 A1A       0.044033
     29 H4          -3.5260    -0.8800     2.7950 hc         1 A1A       0.044033
     30 H5          -4.7970     2.6530     2.6310 hc         1 A1A       0.044033
     31 H6          -5.5570     2.5280     1.0510 hc         1 A1A       0.044033
     32 H7          -6.2620     1.6940     2.4340 hc         1 A1A       0.044033
     33 H8          -4.4650    -1.1360     0.6080 hc         1 A1A       0.102700
     34 H9          -6.0150     1.2320    -0.6820 ha         1 A1A       0.165000
     35 H10         -7.4100    -0.6700    -3.1080 hc         1 A1A       0.041867
     36 H11         -8.5860    -0.6740    -1.8110 hc         1 A1A       0.041867
     37 H12         -7.6840     0.8020    -2.1710 hc         1 A1A       0.041867
     38 H13         -7.3480    -2.6550    -0.7080 hc         1 A1A       0.041867
     39 H14         -6.1480    -2.6500    -1.9800 hc         1 A1A       0.041867
     40 H15         -5.6420    -2.5170    -0.2990 hc         1 A1A       0.041867
     41 H16          6.9510    -0.3590     1.2650 h4         1 A1A       0.027100
     42 H17          8.0770     0.4390    -0.8370 ha         1 A1A       0.136000
     43 H18          6.5870     1.3990    -2.6220 h4         1 A1A       0.027100
     44 H19          2.8580     2.7240    -1.0490 ha         1 A1A       0.133000
     45 H20          0.4240     2.9980    -0.7960 ha         1 A1A       0.126000
     46 H21         -1.5360     2.0780    -0.0900 hn         1 A1A       0.153000
@<TRIPOS>BOND
     1     1     2 1   
     2     1    20 1   
     3     1    24 2   
     4     2     3 1   
     5     2     6 1   
     6     2    26 1   
     7     3     4 1   
     8     3     5 1   
     9     3     6 1   
    10     4    27 1   
    11     4    28 1   
    12     4    29 1   
    13     5    30 1   
    14     5    31 1   
    15     5    32 1   
    16     6     7 1   
    17     6    33 1   
    18     7     8 2   
    19     7    34 1   
    20     8     9 1   
    21     8    10 1   
    22     9    35 1   
    23     9    36 1   
    24     9    37 1   
    25    10    38 1   
    26    10    39 1   
    27    10    40 1   
    28    11    19 ar  
    29    11    20 1   
    30    11    21 ar  
    31    12    13 ar  
    32    12    21 ar  
    33    12    25 1   
    34    13    14 1   
    35    13    18 ar  
    36    14    22 ar  
    37    14    23 ar  
    38    15    16 ar  
    39    15    22 ar  
    40    15    41 1   
    41    16    17 ar  
    42    16    42 1   
    43    17    23 ar  
    44    17    43 1   
    45    18    19 ar  
    46    18    44 1   
    47    19    45 1   
    48    20    46 1   
@<TRIPOS>SUBSTRUCTURE
     1 A1A         1 TEMP              0 ****  ****    0 ROOT
