@<TRIPOS>MOLECULE
A1A
   81    82     1     0     0
SMALL
abcg2


@<TRIPOS>ATOM
      1 N           -9.5550   -15.7170   -18.0830 ns         1 A1A      -0.476900
      2 C           -9.8230   -18.1340   -18.1430 c3         1 A1A       0.027700
      3 O          -10.8210   -16.6970   -16.5050 o          1 A1A      -0.599100
      4 C1         -10.1010   -16.7810   -17.4860 c          1 A1A       0.600100
      5 C10        -14.7330   -15.8350   -14.6120 c          1 A1A       0.567000
      6 C11         -9.0140   -13.3400   -18.3980 c3         1 A1A      -0.083400
      7 C12         -7.6050   -13.0930   -17.8580 c6         1 A1A      -0.062700
      8 C13        -11.1130   -18.6010   -18.8640 c3         1 A1A       0.172300
      9 C14        -11.3130   -17.8030   -20.1430 c3         1 A1A      -0.125100
     10 C15         -8.5240   -18.8630   -16.2230 c          1 A1A       0.552100
     11 C16         -8.3160   -20.0060   -15.2150 c3         1 A1A       0.222000
     12 C18        -12.4190   -20.9620   -17.4220 c3         1 A1A      -0.108767
     13 C19        -11.6130   -22.2010   -19.4310 c3         1 A1A      -0.108767
     14 C2          -9.8390   -14.3780   -17.6270 c3         1 A1A       0.041700
     15 C20        -13.3260   -20.4050   -19.6870 c3         1 A1A      -0.108767
     16 C21         -6.9560   -11.9510   -18.6430 c6         1 A1A      -0.074400
     17 C22         -5.5520   -11.6300   -18.1440 c6         1 A1A      -0.072400
     18 C23         -4.6620   -12.8670   -18.1710 c6         1 A1A      -0.076400
     19 C24         -5.2950   -14.0080   -17.3840 c6         1 A1A      -0.072400
     20 C25         -6.7020   -14.3260   -17.8810 c6         1 A1A      -0.074400
     21 C3         -11.3240   -14.0720   -17.8320 c          1 A1A       0.593100
     22 C4         -13.2890   -12.9710   -16.8230 c3         1 A1A       0.051400
     23 C5         -13.3510   -11.4650   -16.7880 c2         1 A1A       0.401200
     24 C6         -14.0640   -13.6460   -15.6970 c3         1 A1A      -0.063400
     25 C7         -14.0160   -15.1630   -15.7740 c5         1 A1A      -0.161700
     26 C8         -14.6710   -15.8000   -16.9990 c5         1 A1A      -0.091400
     27 C9         -15.1020   -17.1810   -16.5020 c5         1 A1A       0.102000
     28 F17         -7.1200   -19.9220   -14.6510 f          1 A1A      -0.102333
     29 F18         -8.4210   -21.2120   -15.7800 f          1 A1A      -0.102333
     30 F19         -9.2360   -19.9290   -14.2500 f          1 A1A      -0.102333
     31 N1         -11.8970   -13.3740   -16.8370 ns         1 A1A      -0.497900
     32 N2         -15.3310   -16.9400   -15.0940 ns         1 A1A      -0.517900
     33 N3          -9.4640   -19.0990   -17.1340 ns         1 A1A      -0.465900
     34 O1         -11.8990   -14.3960   -18.8580 o          1 A1A      -0.614100
     35 O4         -10.9700   -19.9770   -19.1330 os         1 A1A      -0.484000
     36 O6          -7.8860   -17.8380   -16.1000 o          1 A1A      -0.548100
     37 HN          -8.9770   -15.8410   -18.8990 hn         1 A1A       0.330500
     38 H0          -9.0160   -18.0460   -18.8800 h1         1 A1A       0.066700
     39 H111        -8.9730   -13.6220   -19.4550 hc         1 A1A       0.055200
     40 H112        -9.5510   -12.3880   -18.3640 hc         1 A1A       0.055200
     41 H12         -7.7050   -12.7690   -16.8130 hc         1 A1A       0.049700
     42 H13        -11.9530   -18.4220   -18.1830 h1         1 A1A       0.063700
     43 H142       -12.2190   -18.1160   -20.6580 hc         1 A1A       0.053700
     44 H141       -11.4120   -16.7380   -19.9340 hc         1 A1A       0.053700
     45 H143       -10.4690   -17.9420   -20.8200 hc         1 A1A       0.053700
     46 H181       -13.2470   -21.6570   -17.2790 hc         1 A1A       0.045589
     47 H183       -11.5720   -21.3470   -16.8500 hc         1 A1A       0.045589
     48 H182       -12.7220   -20.0090   -16.9860 hc         1 A1A       0.045589
     49 H191       -12.3850   -22.9560   -19.2840 hc         1 A1A       0.045589
     50 H192       -11.3860   -22.1550   -20.4970 hc         1 A1A       0.045589
     51 H193       -10.7170   -22.5310   -18.9020 hc         1 A1A       0.045589
     52 H2          -9.5920   -14.3060   -16.5620 h1         1 A1A       0.079700
     53 H201       -14.1190   -21.1440   -19.5630 hc         1 A1A       0.045589
     54 H203       -13.7210   -19.4510   -19.3330 hc         1 A1A       0.045589
     55 H202       -13.1170   -20.3180   -20.7540 hc         1 A1A       0.045589
     56 H212        -6.9080   -12.2320   -19.7020 hc         1 A1A       0.040700
     57 H211        -7.5880   -11.0590   -18.5880 hc         1 A1A       0.040700
     58 H221        -5.1140   -10.8320   -18.7480 hc         1 A1A       0.041700
     59 H222        -5.6100   -11.2480   -17.1190 hc         1 A1A       0.041700
     60 H231        -4.5100   -13.1820   -19.2090 hc         1 A1A       0.039200
     61 H232        -3.6730   -12.6330   -17.7690 hc         1 A1A       0.039200
     62 H241        -4.6710   -14.9030   -17.4420 hc         1 A1A       0.041700
     63 H242        -5.3430   -13.7330   -16.3250 hc         1 A1A       0.041700
     64 H251        -7.1260   -15.1280   -17.2730 hc         1 A1A       0.040700
     65 H252        -6.6480   -14.7100   -18.9090 hc         1 A1A       0.040700
     66 H4         -13.7060   -13.2750   -17.7880 h1         1 A1A       0.090700
     67 H5         -12.7040   -10.9800   -17.5250 h4         1 A1A      -0.034200
     68 H62        -13.6670   -13.3170   -14.7330 hc         1 A1A       0.072700
     69 H61        -15.1010   -13.3070   -15.7390 hc         1 A1A       0.072700
     70 H7         -12.9730   -15.4970   -15.7130 hc         1 A1A       0.096700
     71 H82        -15.5510   -15.2210   -17.2930 hc         1 A1A       0.060700
     72 H81        -14.0080   -15.8630   -17.8600 hc         1 A1A       0.060700
     73 H92        -16.0060   -17.5410   -16.9920 h1         1 A1A       0.039200
     74 H91        -14.3170   -17.9290   -16.6560 h1         1 A1A       0.039200
     75 HN1        -11.3600   -13.1950   -16.0020 hn         1 A1A       0.322500
     76 HN2        -15.7670   -17.6180   -14.4880 hn         1 A1A       0.324500
     77 HN3         -9.8290   -20.0320   -17.2680 hn         1 A1A       0.354500
     78 HN4        -13.9980    -9.8310   -16.1280 hn         1 A1A       0.379400
     79 N4         -14.0900   -10.8330   -15.9850 n2         1 A1A      -0.731100
     80 C17        -12.0890   -20.8520   -18.9100 c3         1 A1A       0.190000
     81 O3         -14.7510   -15.4550   -13.4540 o          1 A1A      -0.553000
@<TRIPOS>BOND
     1     1     4 1   
     2     1    14 1   
     3     1    37 1   
     4     2     4 1   
     5     2     8 1   
     6     2    33 1   
     7     2    38 1   
     8     3     4 2   
     9     5    25 1   
    10     5    32 1   
    11     5    81 2   
    12     6     7 1   
    13     6    14 1   
    14     6    39 1   
    15     6    40 1   
    16     7    16 1   
    17     7    20 1   
    18     7    41 1   
    19     8     9 1   
    20     8    35 1   
    21     8    42 1   
    22     9    43 1   
    23     9    44 1   
    24     9    45 1   
    25    10    11 1   
    26    10    33 1   
    27    10    36 2   
    28    11    28 1   
    29    11    29 1   
    30    11    30 1   
    31    12    46 1   
    32    12    47 1   
    33    12    48 1   
    34    12    80 1   
    35    13    49 1   
    36    13    50 1   
    37    13    51 1   
    38    13    80 1   
    39    14    21 1   
    40    14    52 1   
    41    15    53 1   
    42    15    54 1   
    43    15    55 1   
    44    15    80 1   
    45    16    17 1   
    46    16    56 1   
    47    16    57 1   
    48    17    18 1   
    49    17    58 1   
    50    17    59 1   
    51    18    19 1   
    52    18    60 1   
    53    18    61 1   
    54    19    20 1   
    55    19    62 1   
    56    19    63 1   
    57    20    64 1   
    58    20    65 1   
    59    21    31 1   
    60    21    34 2   
    61    22    23 1   
    62    22    24 1   
    63    22    31 1   
    64    22    66 1   
    65    23    67 1   
    66    23    79 2   
    67    24    25 1   
    68    24    68 1   
    69    24    69 1   
    70    25    26 1   
    71    25    70 1   
    72    26    27 1   
    73    26    71 1   
    74    26    72 1   
    75    27    32 1   
    76    27    73 1   
    77    27    74 1   
    78    31    75 1   
    79    32    76 1   
    80    33    77 1   
    81    35    80 1   
    82    78    79 1   
@<TRIPOS>SUBSTRUCTURE
     1 A1A         1 TEMP              0 ****  ****    0 ROOT
