@<TRIPOS>MOLECULE
A1A
   77    81     1     0     0
SMALL
abcg2


@<TRIPOS>ATOM
      1 C12         39.4150    -8.6580    -1.6430 c3         1 A1A      -0.104100
      2 C14         41.4780    -2.3270     1.2690 c6         1 A1A      -0.113500
      3 C15         41.9890    -3.1460     2.3910 cc         1 A1A       0.519600
      4 C16         41.7150    -4.5710     2.4440 cc         1 A1A      -0.193600
      5 C22         42.3550    -6.3010     4.1320 cf         1 A1A       0.028800
      6 C23         42.9590    -6.8910     5.2630 cd         1 A1A      -0.228800
      7 C25         44.1980    -7.0770     7.1110 cd         1 A1A      -0.077300
      8 C26         43.7050    -8.3510     6.8040 cc         1 A1A      -0.252600
      9 C27         42.9120    -8.2360     5.6460 cc         1 A1A      -0.015300
     10 C28         42.1760    -9.3310     4.9530 c3         1 A1A      -0.030800
     11 C29         45.0550    -6.6040     8.2300 c3         1 A1A      -0.046800
     12 O21         43.6130    -3.6700     5.2460 o          1 A1A      -0.547100
     13 C33         45.5510   -10.8890     8.8930 c3         1 A1A       0.107000
     14 C34         46.1470   -10.4960    10.2400 c3         1 A1A       0.158300
     15 C35         45.1550    -9.7650    11.1490 c6         1 A1A      -0.088700
     16 O32         43.0370   -10.4520     7.6490 o          1 A1A      -0.617100
     17 N31         45.1370    -9.7460     8.1150 ns         1 A1A      -0.502900
     18 C41         45.7670    -9.3920    12.4980 c6         1 A1A      -0.111400
     19 C01         41.8680    -6.6320    -4.7710 ca         1 A1A      -0.109500
     20 C02         41.0440    -6.5230    -5.8840 ca         1 A1A      -0.106000
     21 C03         39.6670    -6.6000    -5.7260 ca         1 A1A      -0.109500
     22 C04         39.1210    -6.7850    -4.4620 ca         1 A1A      -0.095500
     23 C05         39.9390    -6.9000    -3.3430 ca         1 A1A      -0.099300
     24 C06         41.3190    -6.8200    -3.5100 ca         1 A1A      -0.095500
     25 C07         39.3290    -7.1740    -1.9850 c3         1 A1A       0.161000
     26 C09         39.7690    -5.0830    -0.7900 c          1 A1A       0.614300
     27 C10         40.5180    -4.4210     0.3260 cf         1 A1A      -0.176200
     28 C13         40.7250    -3.0950     0.2450 c2         1 A1A      -0.116200
     29 C17         41.0140    -5.1760     1.4650 cf         1 A1A      -0.102000
     30 C19         42.9580    -3.7960     4.2230 c          1 A1A       0.709700
     31 C20         42.3490    -5.0200     3.6660 cc         1 A1A      -0.259200
     32 C30         43.9170    -9.6040     7.5580 c          1 A1A       0.646700
     33 C37         43.9020   -10.6190    11.4050 c6         1 A1A      -0.111400
     34 C38         43.2680   -10.2770    12.7550 c6         1 A1A       0.157600
     35 C40         44.7710    -8.5700    13.3200 c6         1 A1A       0.157600
     36 N08         39.9580    -6.4070    -0.9260 ns         1 A1A      -0.500900
     37 N18         42.6820    -2.7030     3.3880 nd         1 A1A      -0.627100
     38 N24         43.7370    -6.2330     6.1860 na         1 A1A      -0.066000
     39 O11         39.0380    -4.4440    -1.5320 o          1 A1A      -0.592100
     40 O36         47.2930    -9.7180     9.9540 oh         1 A1A      -0.670000
     41 O39         43.4240    -8.9080    13.0510 os         1 A1A      -0.449000
     42 H121        38.9350    -8.8660    -0.6860 hc         1 A1A       0.045367
     43 H122        38.9160    -9.2470    -2.4100 hc         1 A1A       0.045367
     44 H123        40.4540    -8.9900    -1.5890 hc         1 A1A       0.045367
     45 H141        42.3090    -1.7950     0.7890 hc         1 A1A       0.101700
     46 H1          40.8430    -1.5230     1.6600 hc         1 A1A       0.101700
     47 H221        41.8060    -7.0130     3.5240 ha         1 A1A       0.181000
     48 H283        41.2790    -9.6150     5.5060 hc         1 A1A       0.049367
     49 H281        41.8650    -9.0430     3.9510 hc         1 A1A       0.049367
     50 H282        42.7900   -10.2260     4.8620 hc         1 A1A       0.049367
     51 H291        44.9270    -5.5340     8.3900 hc         1 A1A       0.059367
     52 H292        44.8100    -7.1170     9.1580 hc         1 A1A       0.059367
     53 H293        46.1140    -6.7780     8.0270 hc         1 A1A       0.059367
     54 H332        44.6950   -11.5430     9.0390 h1         1 A1A       0.062200
     55 H331        46.2960   -11.4650     8.3360 h1         1 A1A       0.062200
     56 H341        46.4320   -11.4350    10.7410 h1         1 A1A       0.032700
     57 H351        44.8550    -8.8410    10.6450 hc         1 A1A       0.071700
     58 H311        45.8550    -9.0830     7.8720 hn         1 A1A       0.323500
     59 H411        46.6770    -8.7970    12.3900 hc         1 A1A       0.048950
     60 H412        46.0530   -10.3050    13.0300 hc         1 A1A       0.048950
     61 H011        42.9430    -6.5720    -4.8850 ha         1 A1A       0.112500
     62 H021        41.4730    -6.3770    -6.8670 ha         1 A1A       0.113000
     63 H031        39.0160    -6.5100    -6.5860 ha         1 A1A       0.112500
     64 H041        38.0450    -6.8400    -4.3440 ha         1 A1A       0.109500
     65 H061        41.9750    -6.9010    -2.6510 ha         1 A1A       0.109500
     66 H071        38.2750    -6.8890    -2.0200 h1         1 A1A       0.077700
     67 H131        40.3450    -2.5370    -0.6000 ha         1 A1A       0.213000
     68 H171        40.7980    -6.2350     1.5400 ha         1 A1A       0.184000
     69 H371        43.1810   -10.4710    10.5990 hc         1 A1A       0.048950
     70 H372        44.1580   -11.6840    11.4030 hc         1 A1A       0.048950
     71 H381        42.1970   -10.4850    12.7440 h1         1 A1A       0.043200
     72 H382        43.7020   -10.8970    13.5510 h1         1 A1A       0.043200
     73 H402        44.8750    -7.5110    13.0760 h1         1 A1A       0.043200
     74 H401        44.9900    -8.6840    14.3900 h1         1 A1A       0.043200
     75 H081        40.6710    -6.8690    -0.3850 hn         1 A1A       0.313500
     76 H2          43.9000    -5.2260     6.1360 hn         1 A1A       0.397000
     77 H361        47.8060    -9.6040    10.7590 ho         1 A1A       0.445000
@<TRIPOS>BOND
     1     1    25 1   
     2     1    42 1   
     3     1    43 1   
     4     1    44 1   
     5     2     3 1   
     6     2    28 1   
     7     2    45 1   
     8     2    46 1   
     9     3     4 1   
    10     3    37 2   
    11     4    29 2   
    12     4    31 1   
    13     5     6 1   
    14     5    31 2   
    15     5    47 1   
    16     6     9 2   
    17     6    38 1   
    18     7     8 2   
    19     7    11 1   
    20     7    38 1   
    21     8     9 1   
    22     8    32 1   
    23     9    10 1   
    24    10    48 1   
    25    10    49 1   
    26    10    50 1   
    27    11    51 1   
    28    11    52 1   
    29    11    53 1   
    30    12    30 2   
    31    13    14 1   
    32    13    17 1   
    33    13    54 1   
    34    13    55 1   
    35    14    15 1   
    36    14    40 1   
    37    14    56 1   
    38    15    18 1   
    39    15    33 1   
    40    15    57 1   
    41    16    32 2   
    42    17    32 1   
    43    17    58 1   
    44    18    35 1   
    45    18    59 1   
    46    18    60 1   
    47    19    20 ar  
    48    19    24 ar  
    49    19    61 1   
    50    20    21 ar  
    51    20    62 1   
    52    21    22 ar  
    53    21    63 1   
    54    22    23 ar  
    55    22    64 1   
    56    23    24 ar  
    57    23    25 1   
    58    24    65 1   
    59    25    36 1   
    60    25    66 1   
    61    26    27 1   
    62    26    36 1   
    63    26    39 2   
    64    27    28 2   
    65    27    29 1   
    66    28    67 1   
    67    29    68 1   
    68    30    31 1   
    69    30    37 1   
    70    33    34 1   
    71    33    69 1   
    72    33    70 1   
    73    34    41 1   
    74    34    71 1   
    75    34    72 1   
    76    35    41 1   
    77    35    73 1   
    78    35    74 1   
    79    36    75 1   
    80    38    76 1   
    81    40    77 1   
@<TRIPOS>SUBSTRUCTURE
     1 A1A         1 TEMP              0 ****  ****    0 ROOT
