@<TRIPOS>MOLECULE
A1A
   37    38     1     0     0
SMALL
abcg2


@<TRIPOS>ATOM
      1 N1         -12.7920   -13.5530   -17.1140 n          1 A1A      -0.073000
      2 C4         -14.0960   -15.5960   -17.2930 ca         1 A1A      -0.077000
      3 C5         -14.7950   -16.6030   -16.6520 ca         1 A1A       0.066000
      4 C6         -14.9240   -16.5800   -15.2710 ca         1 A1A       0.347900
      5 C7         -13.2460   -12.2640   -17.0010 c          1 A1A       0.611100
      6 C8         -11.6870   -13.8660   -19.2720 ca         1 A1A      -0.111500
      7 C10         -9.4470   -14.7430   -19.3590 ca         1 A1A      -0.102000
      8 C13        -12.4040   -11.1600   -17.6000 c3         1 A1A      -0.141400
      9 C1         -11.6570   -13.9410   -17.8850 ca         1 A1A      -0.055000
     10 C11         -9.4300   -14.8340   -17.9730 ca         1 A1A      -0.098500
     11 C12        -10.5320   -14.4320   -17.2330 ca         1 A1A      -0.111500
     12 C14        -13.1500   -10.5100   -18.7590 c3         1 A1A      -0.184400
     13 C16        -14.2330    -9.0160   -20.8600 c3         1 A1A       0.160900
     14 C2         -13.5360   -14.5970   -16.5120 ca         1 A1A      -0.084000
     15 C3         -13.7030   -14.6550   -15.1330 ca         1 A1A       0.354900
     16 C9         -10.5750   -14.2570   -20.0060 ca         1 A1A      -0.098500
     17 N2         -14.3840   -15.6200   -14.5350 nb         1 A1A      -0.650000
     18 O1         -14.2920   -12.0180   -16.4320 o          1 A1A      -0.573100
     19 O2         -12.9350    -8.6940   -20.3690 os         1 A1A      -0.441100
     20 O3         -11.2910    -9.0170   -18.9810 o          1 A1A      -0.435000
     21 H2         -13.9890   -15.5880   -18.3700 ha         1 A1A       0.139000
     22 H3         -15.4700   -17.3600   -14.7540 h4         1 A1A       0.037100
     23 H4         -12.5750   -13.5060   -19.7760 ha         1 A1A       0.122500
     24 H6          -8.5850   -15.0530   -19.9330 ha         1 A1A       0.120000
     25 H14        -12.2470   -10.4260   -16.8070 hc         1 A1A       0.086200
     26 H15        -11.4220   -11.5020   -17.9190 hc         1 A1A       0.086200
     27 H7          -8.5540   -15.2140   -17.4640 ha         1 A1A       0.121000
     28 H8         -10.5190   -14.4920   -16.1520 ha         1 A1A       0.122500
     29 H10        -13.3540   -11.2460   -19.5430 hc         1 A1A       0.073700
     30 H9         -14.1300   -10.1570   -18.4250 hc         1 A1A       0.073700
     31 H13        -14.4210    -8.3340   -21.6850 h1         1 A1A       0.046033
     32 H11        -14.2860   -10.0390   -21.2330 h1         1 A1A       0.046033
     33 H12        -15.0020    -8.8660   -20.1010 h1         1 A1A       0.046033
     34 H1         -13.2630   -13.8960   -14.4970 h4         1 A1A       0.035100
     35 H5         -10.5980   -14.1900   -21.0860 ha         1 A1A       0.121000
     36 CL1        -15.5170   -17.8770   -17.5620 cl         1 A1A      -0.181000
     37 C15        -12.3810    -9.3610   -19.3600 c          1 A1A       0.603100
@<TRIPOS>BOND
     1     1     5 1   
     2     1     9 1   
     3     1    14 1   
     4     2     3 ar  
     5     2    14 ar  
     6     2    21 1   
     7     3     4 ar  
     8     3    36 1   
     9     4    17 ar  
    10     4    22 1   
    11     5     8 1   
    12     5    18 2   
    13     6     9 ar  
    14     6    16 ar  
    15     6    23 1   
    16     7    10 ar  
    17     7    16 ar  
    18     7    24 1   
    19     8    12 1   
    20     8    25 1   
    21     8    26 1   
    22     9    11 ar  
    23    10    11 ar  
    24    10    27 1   
    25    11    28 1   
    26    12    29 1   
    27    12    30 1   
    28    12    37 1   
    29    13    19 1   
    30    13    31 1   
    31    13    32 1   
    32    13    33 1   
    33    14    15 ar  
    34    15    17 ar  
    35    15    34 1   
    36    16    35 1   
    37    19    37 1   
    38    20    37 2   
@<TRIPOS>SUBSTRUCTURE
     1 A1A         1 TEMP              0 ****  ****    0 ROOT
