@<TRIPOS>MOLECULE
A1A
   47    49     1     0     0
SMALL
abcg2


@<TRIPOS>ATOM
      1 N1         -12.7430   -12.8500   -17.4380 n          1 A1A      -0.071000
      2 C4         -12.6890   -10.4350   -17.9800 c3         1 A1A      -0.142400
      3 C5         -10.4570   -13.5400   -17.8410 ca         1 A1A      -0.096000
      4 C6          -9.4130   -13.8730   -18.7010 cp         1 A1A      -0.020000
      5 C7          -9.6240   -13.7780   -20.0770 ca         1 A1A      -0.095000
      6 C8         -10.8510   -13.3730   -20.5780 ca         1 A1A      -0.099000
      7 C10         -8.1100   -14.3170   -18.1650 cp         1 A1A      -0.032000
      8 C13         -5.6420   -15.1720   -17.1470 ca         1 A1A      -0.096000
      9 C15         -7.3980   -15.3410   -18.7900 ca         1 A1A      -0.097000
     10 C17        -14.1850   -16.1240   -16.5740 ca         1 A1A       0.067000
     11 C20        -13.6560    -9.7320   -18.9230 c3         1 A1A      -0.184400
     12 C21        -13.0870    -8.4470   -19.4680 c          1 A1A       0.603100
     13 C22        -15.1540    -8.1400   -20.6650 c3         1 A1A       0.159900
     14 C1         -13.2590   -13.9440   -16.7010 ca         1 A1A      -0.085000
     15 C11         -7.5740   -13.7230   -17.0220 ca         1 A1A      -0.091000
     16 C12         -6.3550   -14.1570   -16.5290 ca         1 A1A       0.120000
     17 C14         -6.1780   -15.7600   -18.2840 ca         1 A1A      -0.102000
     18 C16        -13.7220   -15.0770   -17.3510 ca         1 A1A      -0.078000
     19 C18        -14.1840   -16.0090   -15.1920 ca         1 A1A       0.346900
     20 C19        -13.2830   -13.9160   -15.3100 ca         1 A1A       0.353900
     21 C2         -11.6840   -13.1350   -18.3460 ca         1 A1A      -0.052000
     22 C3         -13.3560   -11.6260   -17.3280 c          1 A1A       0.611100
     23 C9         -11.8930   -13.0620   -19.7170 ca         1 A1A      -0.119000
     24 N2         -13.7390   -14.9210   -14.5810 nb         1 A1A      -0.648000
     25 O1         -14.3820   -11.4970   -16.6900 o          1 A1A      -0.571100
     26 O2         -13.8470    -7.7200   -20.2840 os         1 A1A      -0.441100
     27 O3         -11.9870    -8.0380   -19.2010 o          1 A1A      -0.435000
     28 CL1         -5.7030   -13.4030   -15.1110 cl         1 A1A      -0.198000
     29 H17        -12.4140    -9.7640   -17.1630 hc         1 A1A       0.086200
     30 H18        -11.7680   -10.6930   -18.4960 hc         1 A1A       0.086200
     31 H1         -10.3270   -13.6130   -16.7680 ha         1 A1A       0.131000
     32 H2          -8.8190   -14.0060   -20.7650 ha         1 A1A       0.123000
     33 H3         -10.9990   -13.3040   -21.6480 ha         1 A1A       0.122000
     34 H6          -4.6900   -15.4990   -16.7510 ha         1 A1A       0.132000
     35 H8          -7.8050   -15.8300   -19.6650 ha         1 A1A       0.119000
     36 H13        -13.9200   -10.3900   -19.7580 hc         1 A1A       0.074700
     37 H12        -14.5960    -9.5160   -18.4090 hc         1 A1A       0.074700
     38 H16        -15.5380    -7.3680   -21.3260 h1         1 A1A       0.046033
     39 H14        -15.1350    -9.0870   -21.2060 h1         1 A1A       0.046033
     40 H15        -15.8200    -8.2280   -19.8060 h1         1 A1A       0.046033
     41 H5          -8.0960   -12.9120   -16.5300 ha         1 A1A       0.132000
     42 H7          -5.6370   -16.5590   -18.7730 ha         1 A1A       0.121000
     43 H9         -13.7190   -15.1420   -18.4320 ha         1 A1A       0.140000
     44 H10        -14.5440   -16.8200   -14.5700 h4         1 A1A       0.037100
     45 H11        -12.9120   -13.0490   -14.7750 h4         1 A1A       0.035100
     46 H4         -12.8590   -12.7650   -20.1070 ha         1 A1A       0.120000
     47 CL2        -14.7780   -17.5640   -17.3150 cl         1 A1A      -0.181000
@<TRIPOS>BOND
     1     1    14 1   
     2     1    21 1   
     3     1    22 1   
     4     2    11 1   
     5     2    22 1   
     6     2    29 1   
     7     2    30 1   
     8     3     4 ar  
     9     3    21 ar  
    10     3    31 1   
    11     4     5 ar  
    12     4     7 1   
    13     5     6 ar  
    14     5    32 1   
    15     6    23 ar  
    16     6    33 1   
    17     7     9 ar  
    18     7    15 ar  
    19     8    16 ar  
    20     8    17 ar  
    21     8    34 1   
    22     9    17 ar  
    23     9    35 1   
    24    10    18 ar  
    25    10    19 ar  
    26    10    47 1   
    27    11    12 1   
    28    11    36 1   
    29    11    37 1   
    30    12    26 1   
    31    12    27 2   
    32    13    26 1   
    33    13    38 1   
    34    13    39 1   
    35    13    40 1   
    36    14    18 ar  
    37    14    20 ar  
    38    15    16 ar  
    39    15    41 1   
    40    16    28 1   
    41    17    42 1   
    42    18    43 1   
    43    19    24 ar  
    44    19    44 1   
    45    20    24 ar  
    46    20    45 1   
    47    21    23 ar  
    48    22    25 2   
    49    23    46 1   
@<TRIPOS>SUBSTRUCTURE
     1 A1A         1 TEMP              0 ****  ****    0 ROOT
