@<TRIPOS>MOLECULE
A1A
   38    39     1     0     0
SMALL
abcg2


@<TRIPOS>ATOM
      1 C10        -21.8300   -19.5150   -14.3520 c3         1 A1A      -0.085100
      2 C13        -21.1940   -19.7660   -10.1510 ca         1 A1A      -0.018000
      3 C15        -22.0360   -18.9130    -9.4410 ca         1 A1A      -0.064000
      4 C17        -19.8220   -20.0010    -8.1700 ca         1 A1A      -0.092000
      5 C20        -19.5830   -22.4560   -10.6640 cc         1 A1A      -0.221000
      6 C21        -17.9190   -21.0410   -10.4340 cc         1 A1A       0.399400
      7 C22        -18.4360   -22.9600   -11.1990 cd         1 A1A       0.229900
      8 C08        -22.5250   -20.6470   -13.5850 c3         1 A1A      -0.120000
      9 C09        -22.6020   -20.2970   -12.0970 c          1 A1A       0.610100
     10 C11        -23.9370   -20.8300   -14.1340 c3         1 A1A      -0.085100
     11 C12        -21.7420   -21.9570   -13.7610 c3         1 A1A      -0.085100
     12 C14        -20.0910   -20.3200    -9.4930 ca         1 A1A      -0.031200
     13 C16        -21.7730   -18.6200    -8.1130 ca         1 A1A      -0.170300
     14 C18        -20.6600   -19.1510    -7.4720 ca         1 A1A      -0.075000
     15 C19        -22.7220   -17.7610    -7.3310 c3         1 A1A       0.358300
     16 F01        -23.5180   -18.5120    -6.5540 f          1 A1A      -0.109667
     17 F02        -22.0800   -16.9160    -6.5160 f          1 A1A      -0.109667
     18 F03        -23.5160   -17.0250    -8.1130 f          1 A1A      -0.109667
     19 N05        -21.3950   -20.0490   -11.5020 ns         1 A1A      -0.162000
     20 N06        -19.2410   -21.2180   -10.1750 na         1 A1A      -0.094300
     21 N07        -17.4080   -22.0690   -11.0510 nd         1 A1A      -0.666000
     22 O04        -23.6450   -20.2460   -11.4770 o          1 A1A      -0.567100
     23 H1         -22.3480   -18.5640   -14.2160 hc         1 A1A       0.044256
     24 H2         -20.7890   -19.3760   -14.0560 hc         1 A1A       0.044256
     25 H3         -21.8320   -19.7460   -15.4180 hc         1 A1A       0.044256
     26 H4         -22.8770   -18.4640    -9.9450 ha         1 A1A       0.159000
     27 H5         -18.9630   -20.4410    -7.6820 ha         1 A1A       0.136000
     28 H7         -17.4000   -20.1370   -10.1520 h5         1 A1A       0.060100
     29 H8         -18.2990   -23.9170   -11.6770 h4         1 A1A       0.042100
     30 H9         -24.4700   -21.6390   -13.6350 hc         1 A1A       0.044256
     31 H10        -24.5330   -19.9220   -14.0380 hc         1 A1A       0.044256
     32 H11        -23.8780   -21.0770   -15.1950 hc         1 A1A       0.044256
     33 H12        -22.1880   -22.7680   -13.1830 hc         1 A1A       0.044256
     34 H13        -21.7580   -22.2480   -14.8120 hc         1 A1A       0.044256
     35 H14        -20.6950   -21.8690   -13.4670 hc         1 A1A       0.044256
     36 H15        -20.4420   -18.9260    -6.4370 ha         1 A1A       0.139000
     37 H16        -20.5620   -20.1980   -12.0500 hn         1 A1A       0.167000
     38 H6         -20.5810   -22.8510   -10.5790 h4         1 A1A       0.166000
@<TRIPOS>BOND
     1     1     8 1   
     2     1    23 1   
     3     1    24 1   
     4     1    25 1   
     5     2     3 ar  
     6     2    12 ar  
     7     2    19 1   
     8     3    13 ar  
     9     3    26 1   
    10     4    12 ar  
    11     4    14 ar  
    12     4    27 1   
    13     5     7 2   
    14     5    20 1   
    15     5    38 1   
    16     6    20 1   
    17     6    21 2   
    18     6    28 1   
    19     7    21 1   
    20     7    29 1   
    21     8     9 1   
    22     8    10 1   
    23     8    11 1   
    24     9    19 1   
    25     9    22 2   
    26    10    30 1   
    27    10    31 1   
    28    10    32 1   
    29    11    33 1   
    30    11    34 1   
    31    11    35 1   
    32    12    20 1   
    33    13    14 ar  
    34    13    15 1   
    35    14    36 1   
    36    15    16 1   
    37    15    17 1   
    38    15    18 1   
    39    19    37 1   
@<TRIPOS>SUBSTRUCTURE
     1 A1A         1 TEMP              0 ****  ****    0 ROOT
