@<TRIPOS>MOLECULE
A1A
  115   114     1     0     0
SMALL
abcg2


@<TRIPOS>ATOM
      1 C7         182.3480   168.8260   195.0220 c3         1 A1A      -0.036200
      2 C8         183.3850   168.2140   194.0890 c3         1 A1A      -0.076400
      3 C9         184.7760   168.8630   194.1940 c3         1 A1A      -0.042200
      4 C5         183.4380   167.6960   197.0120 ce         1 A1A      -0.181000
      5 C6         182.4900   168.4690   196.4700 c2         1 A1A      -0.219200
      6 C4         183.4770   167.3420   198.4210 ce         1 A1A      -0.189000
      7 C3         184.4470   166.6480   199.0300 c2         1 A1A      -0.196200
      8 C2         185.7140   166.1350   198.4170 c3         1 A1A      -0.044200
      9 C10        185.8580   167.8940   193.8340 c2         1 A1A      -0.222200
     10 C11        186.8160   167.5110   194.6740 c2         1 A1A      -0.217200
     11 C12        187.8610   166.4620   194.4510 c3         1 A1A      -0.034200
     12 C13        187.7410   165.7170   193.1230 c3         1 A1A      -0.140400
     13 C14        188.7490   164.6080   192.9940 c          1 A1A       0.604100
     14 C17        189.3870   162.5220   193.9660 c3         1 A1A       0.134600
     15 C18        188.8140   161.3680   193.1640 c3         1 A1A       0.138300
     16 C19        187.4400   160.9370   193.6440 c3         1 A1A       0.238600
     17 C25        185.5900   158.6280   190.0640 c3         1 A1A       0.202600
     18 C26        186.4650   159.7560   189.5120 c3         1 A1A       0.141300
     19 C27        186.6850   159.5670   188.0170 c3         1 A1A       0.153600
     20 C33        189.3720   162.0570   189.6180 ce         1 A1A      -0.243200
     21 C34        190.2820   162.0760   188.6430 c2         1 A1A      -0.167200
     22 C35        190.0150   162.4860   187.2390 c3         1 A1A      -0.049200
     23 C36        190.8350   163.7230   186.8600 c3         1 A1A      -0.071400
     24 C37        190.5960   164.2030   185.4310 c3         1 A1A      -0.074400
     25 C38        191.0590   163.2250   184.3590 c3         1 A1A      -0.074400
     26 C39        190.8370   163.7560   182.9400 c3         1 A1A      -0.042200
     27 C40        191.2650   162.7620   181.9050 c2         1 A1A      -0.219200
     28 C41        190.4240   162.0150   181.1970 c2         1 A1A      -0.217200
     29 C42        190.8190   160.9140   180.2620 c3         1 A1A      -0.035200
     30 C43        190.7740   159.5360   180.9500 c3         1 A1A      -0.034200
     31 C44        189.4620   159.2660   181.6170 c2         1 A1A      -0.230200
     32 C45        189.2960   159.1610   182.9320 c2         1 A1A      -0.208200
     33 O15        189.6350   164.5660   192.1800 o          1 A1A      -0.487000
     34 O16        188.5390   163.6660   193.9160 os         1 A1A      -0.449100
     35 O20        187.0680   159.7830   192.9250 os         1 A1A      -0.601400
     36 O22        184.8820   158.7530   193.8020 o          1 A1A      -0.817000
     37 O23        184.8210   160.6800   192.0550 o          1 A1A      -0.817000
     38 O24        185.7280   158.3490   191.4530 os         1 A1A      -0.595400
     39 O28        187.4890   158.4300   187.8040 oh         1 A1A      -0.661000
     40 O29        185.8900   161.0290   189.6660 oh         1 A1A      -0.740000
     41 O30        188.6700   161.7210   191.7910 os         1 A1A      -0.411100
     42 O32        190.8260   161.3020   191.3530 o          1 A1A      -0.519000
     43 P21        185.4840   159.4480   192.6300 p5         1 A1A       1.418800
     44 C15        187.9850   158.9920   183.6320 c3         1 A1A      -0.043200
     45 C16        187.6550   160.2060   184.4990 c3         1 A1A      -0.092100
     46 C20        184.7280   164.3890   196.8850 c2         1 A1A      -0.256200
     47 C21        185.1200   164.0080   195.6720 c2         1 A1A      -0.190200
     48 C22        184.2440   163.7960   194.4760 c3         1 A1A      -0.054200
     49 C23        182.7540   163.9860   194.7090 c3         1 A1A      -0.083100
     50 H1         182.3530   169.9180   194.9240 hc         1 A1A       0.041200
     51 H2         181.3460   168.5240   194.7010 hc         1 A1A       0.041200
     52 H3         183.4600   167.1420   194.2950 hc         1 A1A       0.049200
     53 H4         183.0300   168.2910   193.0590 hc         1 A1A       0.049200
     54 H5         184.9500   169.2350   195.2060 hc         1 A1A       0.041200
     55 H6         184.8080   169.7370   193.5360 hc         1 A1A       0.041200
     56 H7         186.6680   164.3180   197.7650 hc         1 A1A       0.039700
     57 H8         185.3560   164.0620   198.9040 hc         1 A1A       0.039700
     58 H9         184.2150   167.2800   196.3800 ha         1 A1A       0.188000
     59 H10        181.7210   168.8760   197.1230 ha         1 A1A       0.157000
     60 H11        182.6290   167.6650   199.0190 ha         1 A1A       0.160000
     61 H12        184.3150   166.4240   200.0850 ha         1 A1A       0.160000
     62 H13        185.9930   166.7160   197.5360 hc         1 A1A       0.039700
     63 H14        186.5240   166.2680   199.1400 hc         1 A1A       0.039700
     64 H15        185.7950   167.4530   192.8420 ha         1 A1A       0.172000
     65 H16        186.8520   167.9750   195.6580 ha         1 A1A       0.162000
     66 H17        187.7980   165.7550   195.2820 hc         1 A1A       0.054700
     67 H18        188.8530   166.9180   194.5300 hc         1 A1A       0.054700
     68 H19        187.8790   166.4010   192.2850 hc         1 A1A       0.078200
     69 H20        186.7400   165.2860   193.0330 hc         1 A1A       0.078200
     70 H21        189.4380   162.2300   195.0160 h1         1 A1A       0.065200
     71 H22        190.3970   162.7620   193.6360 h1         1 A1A       0.065200
     72 H23        189.5070   160.5270   193.2730 h1         1 A1A       0.078700
     73 H24        186.7200   161.7500   193.5090 h1         1 A1A       0.034700
     74 H25        187.5020   160.7260   194.7170 h1         1 A1A       0.034700
     75 H26        184.5440   158.8390   189.8150 h1         1 A1A       0.030700
     76 H27        185.8590   157.6960   189.5660 h1         1 A1A       0.030700
     77 H28        187.4490   159.6960   190.0030 h1         1 A1A       0.052700
     78 H29        185.7110   159.4780   187.5150 h1         1 A1A       0.016200
     79 H30        187.1620   160.4750   187.6250 h1         1 A1A       0.016200
     80 H31        188.3390   162.3240   189.4250 ha         1 A1A       0.218000
     81 H32        191.3060   161.7930   188.8730 ha         1 A1A       0.180000
     82 H33        188.9500   162.6820   187.0920 hc         1 A1A       0.048700
     83 H34        190.2810   161.6530   186.5790 hc         1 A1A       0.048700
     84 H35        191.9000   163.5110   187.0010 hc         1 A1A       0.043200
     85 H36        190.5890   164.5310   187.5540 hc         1 A1A       0.043200
     86 H37        191.1150   165.1560   185.2930 hc         1 A1A       0.035700
     87 H38        189.5300   164.4160   185.2940 hc         1 A1A       0.035700
     88 H39        190.5250   162.2750   184.4560 hc         1 A1A       0.041700
     89 H40        192.1200   162.9970   184.5050 hc         1 A1A       0.041700
     90 H41        191.3860   164.6950   182.8180 hc         1 A1A       0.040700
     91 H42        189.7770   163.9920   182.8090 hc         1 A1A       0.040700
     92 H43        192.3370   162.6140   181.7860 ha         1 A1A       0.162000
     93 H44        189.3570   162.1630   181.3430 ha         1 A1A       0.169000
     94 H45        191.8300   161.0790   179.8810 hc         1 A1A       0.039200
     95 H46        190.1530   160.9060   179.3950 hc         1 A1A       0.039200
     96 H47        191.5760   159.4860   181.6900 hc         1 A1A       0.041700
     97 H48        190.9830   158.7660   180.2000 hc         1 A1A       0.041700
     98 H49        188.5900   159.1990   180.9680 ha         1 A1A       0.163000
     99 H50        190.1700   159.2480   183.5760 ha         1 A1A       0.168000
    100 H52        187.5020   158.2390   186.8620 ho         1 A1A       0.426000
    101 H53        185.4700   161.0570   190.5580 ho         1 A1A       0.527000
    102 H54        188.0150   158.1010   184.2670 hc         1 A1A       0.041700
    103 H55        187.1890   158.8280   182.9010 hc         1 A1A       0.041700
    104 H56        186.7020   160.0760   185.0150 hc         1 A1A       0.038033
    105 H57        188.4260   160.3720   185.2540 hc         1 A1A       0.038033
    106 H58        187.5870   161.1120   183.8950 hc         1 A1A       0.038033
    107 H59        183.6740   164.5650   197.0800 ha         1 A1A       0.171000
    108 H60        186.1820   163.8410   195.4990 ha         1 A1A       0.167000
    109 H61        184.5780   164.4780   193.6850 hc         1 A1A       0.067200
    110 H62        184.4300   162.7950   194.0730 hc         1 A1A       0.067200
    111 H63        182.1980   163.8180   193.7870 hc         1 A1A       0.028700
    112 H64        182.3730   163.2900   195.4570 hc         1 A1A       0.028700
    113 H65        182.5280   164.9960   195.0530 hc         1 A1A       0.028700
    114 C31        189.7290   161.6510   190.9860 c          1 A1A       0.611300
    115 C1         185.6590   164.6460   198.0290 c3         1 A1A      -0.028200
@<TRIPOS>BOND
     1     1     2 1   
     2     1     5 1   
     3     1    50 1   
     4     1    51 1   
     5     2     3 1   
     6     2    52 1   
     7     2    53 1   
     8     3     9 1   
     9     3    54 1   
    10     3    55 1   
    11     4     5 2   
    12     4     6 1   
    13     4    58 1   
    14     5    59 1   
    15     6     7 2   
    16     6    60 1   
    17     7     8 1   
    18     7    61 1   
    19     8    62 1   
    20     8    63 1   
    21     8   115 1   
    22     9    10 2   
    23     9    64 1   
    24    10    11 1   
    25    10    65 1   
    26    11    12 1   
    27    11    66 1   
    28    11    67 1   
    29    12    13 1   
    30    12    68 1   
    31    12    69 1   
    32    13    33 2   
    33    13    34 1   
    34    14    15 1   
    35    14    34 1   
    36    14    70 1   
    37    14    71 1   
    38    15    16 1   
    39    15    41 1   
    40    15    72 1   
    41    16    35 1   
    42    16    73 1   
    43    16    74 1   
    44    17    18 1   
    45    17    38 1   
    46    17    75 1   
    47    17    76 1   
    48    18    19 1   
    49    18    40 1   
    50    18    77 1   
    51    19    39 1   
    52    19    78 1   
    53    19    79 1   
    54    20    21 2   
    55    20    80 1   
    56    20   114 1   
    57    21    22 1   
    58    21    81 1   
    59    22    23 1   
    60    22    82 1   
    61    22    83 1   
    62    23    24 1   
    63    23    84 1   
    64    23    85 1   
    65    24    25 1   
    66    24    86 1   
    67    24    87 1   
    68    25    26 1   
    69    25    88 1   
    70    25    89 1   
    71    26    27 1   
    72    26    90 1   
    73    26    91 1   
    74    27    28 2   
    75    27    92 1   
    76    28    29 1   
    77    28    93 1   
    78    29    30 1   
    79    29    94 1   
    80    29    95 1   
    81    30    31 1   
    82    30    96 1   
    83    30    97 1   
    84    31    32 2   
    85    31    98 1   
    86    32    44 1   
    87    32    99 1   
    88    35    43 1   
    89    36    43 1   
    90    37    43 1   
    91    38    43 1   
    92    39   100 1   
    93    40   101 1   
    94    41   114 1   
    95    42   114 2   
    96    44    45 1   
    97    44   102 1   
    98    44   103 1   
    99    45   104 1   
   100    45   105 1   
   101    45   106 1   
   102    46    47 2   
   103    46   107 1   
   104    46   115 1   
   105    47    48 1   
   106    47   108 1   
   107    48    49 1   
   108    48   109 1   
   109    48   110 1   
   110    49   111 1   
   111    49   112 1   
   112    49   113 1   
   113    56   115 1   
   114    57   115 1   
@<TRIPOS>SUBSTRUCTURE
     1 A1A         1 TEMP              0 ****  ****    0 ROOT
