@<TRIPOS>MOLECULE
A1A
   43    46     1     0     0
SMALL
abcg2


@<TRIPOS>ATOM
      1 C10         12.0120    14.9020     9.5500 ca         1 A1A      -0.088500
      2 N12         13.1630    16.6290    13.6150 n          1 A1A       0.139000
      3 C13         13.7220    17.5070    14.5590 c          1 A1A       0.564000
      4 C15         13.0490    17.4510    15.8260 cc         1 A1A      -0.420200
      5 C17         11.2900    16.5730    17.3570 ca         1 A1A      -0.145800
      6 C20          9.9800    16.4910    19.8030 ca         1 A1A      -0.060000
      7 C21         10.3560    17.7240    19.2750 ca         1 A1A      -0.140600
      8 C22         10.0370    19.0260    20.0130 c          1 A1A       0.715600
      9 C01          9.3920    14.6520    12.2540 c3         1 A1A      -0.091100
     10 C03         11.8410    15.1090    12.6950 cc         1 A1A      -0.245300
     11 C04         12.8280    15.6020    11.8030 cc         1 A1A       0.325500
     12 C05         13.0680    15.2060    10.4090 ca         1 A1A      -0.107500
     13 C06         14.3720    15.1490     9.9150 ca         1 A1A      -0.088500
     14 C07         14.6130    14.7910     8.5970 ca         1 A1A      -0.121000
     15 C08         13.5550    14.4830     7.7510 ca         1 A1A      -0.114000
     16 C09         12.2540    14.5410     8.2320 ca         1 A1A      -0.121000
     17 C16         11.9830    16.6330    16.0610 cd         1 A1A       0.281800
     18 C18         10.9020    15.3470    17.8980 ca         1 A1A      -0.121000
     19 C19         10.2530    15.3130    19.1220 ca         1 A1A      -0.146000
     20 C25         11.0150    17.7490    18.0520 ca         1 A1A      -0.043000
     21 C27         12.1010    15.8100    13.8490 cd         1 A1A       0.241000
     22 N11         13.6140    16.5060    12.3640 nd         1 A1A      -0.484800
     23 N26         11.5250    15.8160    15.0810 na         1 A1A      -0.790000
     24 O23          9.4630    18.9060    21.1110 o          1 A1A      -0.708500
     25 O24         10.3790    20.0800    19.4470 o          1 A1A      -0.708500
     26 H101        10.9890    14.9720     9.8960 ha         1 A1A       0.123500
     27 H151        13.4340    18.0700    16.6230 ha         1 A1A       0.236000
     28 H201         9.4680    16.4570    20.7550 ha         1 A1A       0.135000
     29 H011         8.6590    13.8560    12.1200 hc         1 A1A       0.032033
     30 H012         9.0640    15.2680    13.0920 hc         1 A1A       0.032033
     31 H013         9.3740    15.2760    11.3610 hc         1 A1A       0.032033
     32 H021        10.7450    13.4330    13.3960 hc         1 A1A       0.040200
     33 H022        11.0640    13.4090    11.6870 hc         1 A1A       0.040200
     34 H061        15.2030    15.3760    10.5700 ha         1 A1A       0.123500
     35 H071        15.6310    14.7470     8.2310 ha         1 A1A       0.106500
     36 H081        13.7430    14.2010     6.7230 ha         1 A1A       0.104000
     37 H091        11.4220    14.3130     7.5790 ha         1 A1A       0.106500
     38 H181        11.1260    14.4200    17.3840 ha         1 A1A       0.088000
     39 H191         9.9630    14.3610    19.5470 ha         1 A1A       0.095000
     40 H251        11.2960    18.7040    17.6270 ha         1 A1A       0.143000
     41 H261        10.6890    15.2670    15.2240 hn         1 A1A       0.526000
     42 C02         10.7830    14.0700    12.5080 c3         1 A1A       0.013900
     43 O14         14.6770    18.1990    14.2720 o          1 A1A      -0.495000
@<TRIPOS>BOND
     1     1    12 ar  
     2     1    16 ar  
     3     1    26 1   
     4     2     3 1   
     5     2    21 1   
     6     2    22 1   
     7     3     4 1   
     8     3    43 2   
     9     4    17 2   
    10     4    27 1   
    11     5    17 1   
    12     5    18 ar  
    13     5    20 ar  
    14     6     7 ar  
    15     6    19 ar  
    16     6    28 1   
    17     7     8 1   
    18     7    20 ar  
    19     8    24 1   
    20     8    25 1   
    21     9    29 1   
    22     9    30 1   
    23     9    31 1   
    24     9    42 1   
    25    10    11 1   
    26    10    21 2   
    27    10    42 1   
    28    11    12 1   
    29    11    22 2   
    30    12    13 ar  
    31    13    14 ar  
    32    13    34 1   
    33    14    15 ar  
    34    14    35 1   
    35    15    16 ar  
    36    15    36 1   
    37    16    37 1   
    38    17    23 1   
    39    18    19 ar  
    40    18    38 1   
    41    19    39 1   
    42    20    40 1   
    43    21    23 1   
    44    23    41 1   
    45    32    42 1   
    46    33    42 1   
@<TRIPOS>SUBSTRUCTURE
     1 A1A         1 TEMP              0 ****  ****    0 ROOT
