@<TRIPOS>MOLECULE
A1A
   51    54     1     0     0
SMALL
abcg2


@<TRIPOS>ATOM
      1 C10         20.2660    -6.2250    -0.6540 ca         1 A1A      -0.105000
      2 C13         21.8970    -3.8250     0.2950 ca         1 A1A      -0.098000
      3 C15         24.1170    -2.9460    -0.0820 ca         1 A1A      -0.079300
      4 C22         27.4900    -4.6450     1.8660 cc         1 A1A       0.311000
      5 C28         27.6170    -0.9140     4.2670 c3         1 A1A      -0.077400
      6 C05         20.3670    -3.7470    -3.4720 cc         1 A1A       0.460000
      7 C06         20.0290    -4.9030    -2.6410 ca         1 A1A      -0.146500
      8 C07         18.9800    -5.7260    -3.0490 ca         1 A1A      -0.098000
      9 C08         18.5750    -6.7920    -2.2620 ca         1 A1A      -0.124000
     10 C09         19.2160    -7.0350    -1.0570 ca         1 A1A      -0.092000
     11 C11         20.6990    -5.1560    -1.4370 cp         1 A1A       0.043000
     12 C12         21.8660    -4.3660    -0.9880 cp         1 A1A      -0.061000
     13 C14         23.0060    -3.1210     0.7380 ca         1 A1A      -0.080500
     14 C18         27.0370    -4.0370     0.7260 cd         1 A1A      -0.193600
     15 C19         27.4260    -4.2660    -0.7140 c          1 A1A       0.742600
     16 C25         26.2230    -3.1020     2.5640 cd         1 A1A       0.350800
     17 C27         26.2350    -0.8090     3.6350 c3         1 A1A      -0.068400
     18 C29         28.2700     0.4480     4.4550 c3         1 A1A      -0.087100
     19 C30         24.0840    -3.4870    -1.3650 ca         1 A1A      -0.080500
     20 C31         22.9750    -4.1880    -1.8110 ca         1 A1A      -0.098000
     21 N01         20.5690    -3.7810    -4.7920 na         1 A1A      -0.214700
     22 N02         20.8160    -2.5590    -5.2250 nc         1 A1A      -0.214800
     23 N03         20.7640    -1.8000    -4.2010 nd         1 A1A      -0.048000
     24 N04         20.4880    -2.4940    -3.0990 nd         1 A1A      -0.364000
     25 N17         26.2140    -3.0360     1.2110 na         1 A1A      -0.137500
     26 N24         27.0060    -4.0710     2.9860 nc         1 A1A      -0.694000
     27 O20         27.3700    -3.2810    -1.4770 o          1 A1A      -0.703500
     28 O21         27.8030    -5.4160    -0.9860 o          1 A1A      -0.703500
     29 H101        20.7800    -6.4400     0.2750 ha         1 A1A       0.131000
     30 H131        21.0420    -3.9390     0.9500 ha         1 A1A       0.103500
     31 H261        24.4920    -1.9830     3.1520 hc         1 A1A       0.045200
     32 H262        25.4490    -2.6430     4.4520 hc         1 A1A       0.045200
     33 H282        27.5330    -1.4200     5.2340 hc         1 A1A       0.053200
     34 H281        28.2630    -1.5450     3.6510 hc         1 A1A       0.053200
     35 H071        18.4620    -5.5160    -3.9750 ha         1 A1A       0.107000
     36 H081        17.7570    -7.4210    -2.5870 ha         1 A1A       0.111000
     37 H091        18.9060    -7.8620    -0.4320 ha         1 A1A       0.113000
     38 H141        22.9940    -2.6940     1.7320 ha         1 A1A       0.135500
     39 H161        25.9030    -1.8060    -0.4250 h1         1 A1A       0.076700
     40 H162        25.0260    -1.3510     1.0260 h1         1 A1A       0.076700
     41 H272        25.6050    -0.1640     4.2530 hc         1 A1A       0.029700
     42 H271        26.3160    -0.3120     2.6630 hc         1 A1A       0.029700
     43 H292        29.2570     0.3580     4.9090 hc         1 A1A       0.023367
     44 H293        28.3910     0.9610     3.5000 hc         1 A1A       0.023367
     45 H291        27.6660     1.0910     5.0990 hc         1 A1A       0.023367
     46 H301        24.9400    -3.3680    -2.0150 ha         1 A1A       0.135500
     47 H311        22.9850    -4.6160    -2.8060 ha         1 A1A       0.103500
     48 H011        20.5740    -4.5700    -5.4260 hn         1 A1A       0.384000
     49 C26         25.5190    -2.1560     3.4780 c3         1 A1A      -0.090700
     50 C16         25.3310    -2.1960     0.4100 c3         1 A1A       0.119900
     51 CL23        28.6020    -5.9460     1.9950 cl         1 A1A      -0.170000
@<TRIPOS>BOND
     1     1    10 ar  
     2     1    11 ar  
     3     1    29 1   
     4     2    12 ar  
     5     2    13 ar  
     6     2    30 1   
     7     3    13 ar  
     8     3    19 ar  
     9     3    50 1   
    10     4    14 2   
    11     4    26 1   
    12     4    51 1   
    13     5    17 1   
    14     5    18 1   
    15     5    33 1   
    16     5    34 1   
    17     6     7 1   
    18     6    21 1   
    19     6    24 2   
    20     7     8 ar  
    21     7    11 ar  
    22     8     9 ar  
    23     8    35 1   
    24     9    10 ar  
    25     9    36 1   
    26    10    37 1   
    27    11    12 1   
    28    12    20 ar  
    29    13    38 1   
    30    14    15 1   
    31    14    25 1   
    32    15    27 1   
    33    15    28 1   
    34    16    25 1   
    35    16    26 2   
    36    16    49 1   
    37    17    41 1   
    38    17    42 1   
    39    17    49 1   
    40    18    43 1   
    41    18    44 1   
    42    18    45 1   
    43    19    20 ar  
    44    19    46 1   
    45    20    47 1   
    46    21    22 1   
    47    21    48 1   
    48    22    23 2   
    49    23    24 1   
    50    25    50 1   
    51    31    49 1   
    52    32    49 1   
    53    39    50 1   
    54    40    50 1   
@<TRIPOS>SUBSTRUCTURE
     1 A1A         1 TEMP              0 ****  ****    0 ROOT
