@<TRIPOS>MOLECULE
A1A
   24    25     1     0     0
SMALL
abcg2


@<TRIPOS>ATOM
      1 CA          -9.3690     3.8140    44.3400 c6         1 A1A       0.086800
      2 CB          -9.7390     3.3470    42.9570 ca         1 A1A      -0.031300
      3 C20        -10.8910     2.5590    42.7990 ca         1 A1A       0.004200
      4 C21        -11.5700     2.0900    43.9920 ce         1 A1A      -0.319200
      5 C22        -10.9370     2.1940    45.1770 c2         1 A1A       0.053000
      6 C24        -10.5860     2.5890    40.3820 ca         1 A1A      -0.102300
      7 C26         -9.4300     3.3450    40.5600 ca         1 A1A      -0.136000
      8 C23        -11.3000     2.2030    41.5130 ca         1 A1A      -0.132000
      9 C25        -11.0340     2.1640    39.0130 c3         1 A1A      -0.030800
     10 C27         -9.0170     3.7170    41.8350 ca         1 A1A      -0.083000
     11 C           -9.9970     5.2090    44.6850 c          1 A1A       0.710000
     12 N           -9.7160     2.7880    45.3050 nu         1 A1A      -0.766200
     13 O          -10.4440     5.3440    45.8380 o          1 A1A      -0.716500
     14 HA          -8.2830     3.9570    44.3820 h1         1 A1A       0.045700
     15 H2         -12.5070     1.5540    43.9160 ha         1 A1A       0.164000
     16 H3         -11.3470     1.7550    46.0780 h4         1 A1A       0.158000
     17 H4          -8.8510     3.6550    39.6970 ha         1 A1A       0.087000
     18 H5         -12.1930     1.5970    41.3960 ha         1 A1A       0.088000
     19 H6         -10.7340     1.1350    38.8020 hc         1 A1A       0.023033
     20 H7         -12.1180     2.2080    38.9140 hc         1 A1A       0.023033
     21 H8         -10.6000     2.7930    38.2360 hc         1 A1A       0.023033
     22 H9          -8.1190     4.3130    41.9510 ha         1 A1A       0.108000
     23 H           -9.4660     3.0290    46.2500 hn         1 A1A       0.461000
     24 OXT         -9.9360     6.0640    43.7850 o          1 A1A      -0.716500
@<TRIPOS>BOND
     1     1     2 1   
     2     1    11 1   
     3     1    12 1   
     4     1    14 1   
     5     2     3 ar  
     6     2    10 ar  
     7     3     4 1   
     8     3     8 ar  
     9     4     5 2   
    10     4    15 1   
    11     5    12 1   
    12     5    16 1   
    13     6     7 ar  
    14     6     8 ar  
    15     6     9 1   
    16     7    10 ar  
    17     7    17 1   
    18     8    18 1   
    19     9    19 1   
    20     9    20 1   
    21     9    21 1   
    22    10    22 1   
    23    11    13 1   
    24    11    24 1   
    25    12    23 1   
@<TRIPOS>SUBSTRUCTURE
     1 A1A         1 TEMP              0 ****  ****    0 ROOT
