@<TRIPOS>MOLECULE
A1A
   54    53     1     0     0
SMALL
abcg2


@<TRIPOS>ATOM
      1 N1         -57.5370    15.0950   -41.1280 ns         1 A1A      -0.482900
      2 C4         -58.2220    14.1950   -40.4020 c          1 A1A       0.610100
      3 C5         -57.3920    15.0040   -42.5560 c3         1 A1A       0.044700
      4 C6         -56.5210    13.8200   -42.9870 c3         1 A1A       0.148600
      5 C7         -58.7730    15.0750   -43.2270 c          1 A1A       0.600100
      6 C8         -60.0460    14.7170   -45.2910 c3         1 A1A       0.007700
      7 C13        -60.2620    13.3860   -46.0130 c          1 A1A       0.578100
      8 C1         -60.6220    15.4100   -38.8700 c3         1 A1A      -0.097100
      9 C11        -60.8740    17.4750   -47.9170 c3         1 A1A      -0.091600
     10 C12        -62.3620    16.5820   -46.1100 c3         1 A1A      -0.091600
     11 C14        -60.8420    12.1840   -45.2710 c3         1 A1A      -0.199700
     12 C16        -61.3840    12.4330   -43.8720 c3         1 A1A       0.168600
     13 C3         -58.2670    14.4500   -38.9110 c3         1 A1A      -0.151400
     14 C9         -59.9160    15.9140   -46.2290 c3         1 A1A      -0.083400
     15 N2         -58.8570    14.5580   -44.4720 ns         1 A1A      -0.500900
     16 O1         -58.7620    13.2210   -40.9080 o          1 A1A      -0.609100
     17 O2         -55.3240    13.8900   -42.2550 oh         1 A1A      -0.658000
     18 O3         -59.7130    15.6100   -42.6710 o          1 A1A      -0.582100
     19 O5         -58.7180    11.1830   -44.5010 oh         1 A1A      -0.663000
     20 O6         -62.5140    13.2760   -43.9650 oh         1 A1A      -0.663000
     21 H1         -57.1310    15.8900   -40.6640 hn         1 A1A       0.325500
     22 H2         -56.8740    15.9170   -42.8670 h1         1 A1A       0.071700
     23 H3         -57.0520    12.8790   -42.8220 h1         1 A1A       0.036700
     24 H4         -56.3190    13.8980   -44.0630 h1         1 A1A       0.036700
     25 H5         -60.8750    14.8740   -44.6050 h1         1 A1A       0.115700
     26 H6         -61.4440    15.4390   -47.6660 hc         1 A1A       0.056700
     27 H7         -60.3900    10.1300   -44.8940 h1         1 A1A       0.049950
     28 H8         -59.6090    10.7660   -46.3320 h1         1 A1A       0.049950
     29 H9         -61.6120    15.3170   -38.4220 hc         1 A1A       0.038033
     30 H10        -60.2470    16.4090   -38.6380 hc         1 A1A       0.038033
     31 H11        -60.7460    15.3480   -39.9520 hc         1 A1A       0.038033
     32 H12        -60.0500    17.2650   -48.6020 hc         1 A1A       0.034867
     33 H13        -61.7430    17.7470   -48.5190 hc         1 A1A       0.034867
     34 H14        -60.5960    18.3490   -47.3230 hc         1 A1A       0.034867
     35 H15        -62.6840    15.7110   -45.5370 hc         1 A1A       0.034867
     36 H16        -62.1200    17.3770   -45.4000 hc         1 A1A       0.034867
     37 H17        -63.2210    16.9150   -46.6950 hc         1 A1A       0.034867
     38 H18        -61.6880    11.8580   -45.8900 hc         1 A1A       0.086700
     39 H19        -61.6590    11.4610   -43.4420 h1         1 A1A       0.049950
     40 H20        -60.6120    12.8540   -43.2210 h1         1 A1A       0.049950
     41 H21        -59.6200    14.4000   -37.2570 hc         1 A1A       0.047700
     42 H22        -60.0810    13.3440   -38.5690 hc         1 A1A       0.047700
     43 H23        -57.8470    15.4290   -38.6660 hc         1 A1A       0.055700
     44 H24        -57.6200    13.7070   -38.4360 hc         1 A1A       0.055700
     45 H25        -59.0840    15.7480   -46.9190 hc         1 A1A       0.046700
     46 H26        -59.6370    16.7750   -45.6130 hc         1 A1A       0.046700
     47 H27        -58.0080    14.3040   -44.9530 hn         1 A1A       0.306500
     48 H28        -54.7900    13.1250   -42.4860 ho         1 A1A       0.450000
     49 H29        -58.0760    11.7030   -44.9930 ho         1 A1A       0.444000
     50 H30        -62.7610    13.5500   -43.0770 ho         1 A1A       0.444000
     51 O4         -59.9450    13.2620   -47.1740 o          1 A1A      -0.530100
     52 C10        -61.1750    16.2790   -47.0200 c3         1 A1A      -0.054700
     53 C2         -59.6800    14.3350   -38.3460 c3         1 A1A      -0.063400
     54 C15        -59.8650    11.0000   -45.2940 c3         1 A1A       0.168600
@<TRIPOS>BOND
     1     1     2 1   
     2     1     3 1   
     3     1    21 1   
     4     2    13 1   
     5     2    16 2   
     6     3     4 1   
     7     3     5 1   
     8     3    22 1   
     9     4    17 1   
    10     4    23 1   
    11     4    24 1   
    12     5    15 1   
    13     5    18 2   
    14     6     7 1   
    15     6    14 1   
    16     6    15 1   
    17     6    25 1   
    18     7    11 1   
    19     7    51 2   
    20     8    29 1   
    21     8    30 1   
    22     8    31 1   
    23     8    53 1   
    24     9    32 1   
    25     9    33 1   
    26     9    34 1   
    27     9    52 1   
    28    10    35 1   
    29    10    36 1   
    30    10    37 1   
    31    10    52 1   
    32    11    12 1   
    33    11    38 1   
    34    11    54 1   
    35    12    20 1   
    36    12    39 1   
    37    12    40 1   
    38    13    43 1   
    39    13    44 1   
    40    13    53 1   
    41    14    45 1   
    42    14    46 1   
    43    14    52 1   
    44    15    47 1   
    45    17    48 1   
    46    19    49 1   
    47    19    54 1   
    48    20    50 1   
    49    26    52 1   
    50    27    54 1   
    51    28    54 1   
    52    41    53 1   
    53    42    53 1   
@<TRIPOS>SUBSTRUCTURE
     1 A1A         1 TEMP              0 ****  ****    0 ROOT
