@<TRIPOS>MOLECULE
A1A
   17    16     1     0     0
SMALL
abcg2


@<TRIPOS>ATOM
      1 N          -21.0780    74.2930   102.5090 n8         1 A1A      -1.011200
      2 CA         -21.5730    75.0400   101.3630 c3         1 A1A       0.013500
      3 C          -21.6880    74.1380   100.1050 c          1 A1A       0.718000
      4 CB         -20.6730    76.2450   101.0790 c3         1 A1A      -0.035400
      5 CG         -20.4540    77.1780   102.2790 c3         1 A1A      -0.204400
      6 CD         -21.7250    77.8030   102.7570 c          1 A1A       0.586900
      7 OE1        -21.9950    78.9770   102.6670 o          1 A1A      -0.562100
      8 OXT        -21.8890    74.7300    99.0270 o          1 A1A      -0.727500
      9 O          -21.6030    72.9060   100.2770 o          1 A1A      -0.727500
     10 H2         -21.5120    74.6180   103.3620 hn         1 A1A       0.384500
     11 H          -21.3540    73.3270   102.3860 hn         1 A1A       0.384500
     12 HA         -22.5970    75.4150   101.5350 h1         1 A1A      -0.001300
     13 HB2        -19.6890    75.8860   100.7650 hc         1 A1A       0.052200
     14 HB3        -21.0810    76.8170   100.2450 hc         1 A1A       0.052200
     15 HG3        -20.0300    76.5980   103.1050 hc         1 A1A       0.052200
     16 HG2        -19.7420    77.9630   102.0170 hc         1 A1A       0.052200
     17 HD         -22.4470    77.1040   103.2190 h4         1 A1A      -0.026800
@<TRIPOS>BOND
     1     1     2 1   
     2     1    10 1   
     3     1    11 1   
     4     2     3 1   
     5     2     4 1   
     6     2    12 1   
     7     3     8 1   
     8     3     9 1   
     9     4     5 1   
    10     4    13 1   
    11     4    14 1   
    12     5     6 1   
    13     5    15 1   
    14     5    16 1   
    15     6     7 2   
    16     6    17 1   
@<TRIPOS>SUBSTRUCTURE
     1 A1A         1 TEMP              0 ****  ****    0 ROOT
