@<TRIPOS>MOLECULE
A1A
   43    44     1     0     0
SMALL
abcg2


@<TRIPOS>ATOM
      1 O14         68.1770   -84.3040   -16.7730 o          1 A1A      -0.526500
      2 C15         69.6400   -81.2680   -15.0930 c          1 A1A       0.682100
      3 C18         71.1900   -79.3360   -15.0030 ca         1 A1A       0.302900
      4 C20         72.6810   -77.6660   -15.2960 ca         1 A1A       0.188300
      5 C21         72.1560   -77.0040   -14.1930 ca         1 A1A      -0.343000
      6 C22         71.1060   -77.6370   -13.5390 ca         1 A1A       0.388300
      7 C24         73.8140   -77.0700   -16.0680 c3         1 A1A      -0.154400
      8 C01         65.8840   -81.7950   -14.9640 ca         1 A1A       0.239100
      9 C02         64.8350   -80.9540   -15.3310 ca         1 A1A      -0.162000
     10 C03         64.6470   -80.5920   -16.6520 ca         1 A1A      -0.038000
     11 C04         65.5050   -81.0650   -17.6390 ca         1 A1A      -0.140000
     12 C05         66.5430   -81.9070   -17.2930 ca         1 A1A      -0.018000
     13 C06         66.7330   -82.2790   -15.9620 ca         1 A1A      -0.309500
     14 C08         65.1630   -83.0300   -13.1060 c3         1 A1A       0.166600
     15 C09         65.4540   -83.1540   -11.6380 c3         1 A1A       0.125600
     16 C26         70.9060   -75.9170   -11.9290 c3         1 A1A       0.149900
     17 N12         69.4420   -82.4010   -15.8650 ns         1 A1A      -0.597300
     18 N16         70.7360   -80.5500   -15.4940 ns         1 A1A      -0.320900
     19 N19         72.2010   -78.8350   -15.7060 nb         1 A1A      -0.269000
     20 N23         70.6240   -78.8050   -13.9430 nb         1 A1A      -0.209000
     21 O13         68.0750   -83.9010   -14.3160 o          1 A1A      -0.526500
     22 O17         68.8970   -80.9910   -14.1850 o          1 A1A      -0.518100
     23 O25         70.4870   -77.1620   -12.4670 os         1 A1A      -0.426300
     24 S11         68.0930   -83.3770   -15.6600 sy         1 A1A       1.202300
     25 CL10        65.1760   -81.5950   -10.7890 cl         1 A1A      -0.274000
     26 H1          72.5630   -76.0520   -13.8840 ha         1 A1A       0.138000
     27 H2          74.0930   -77.7040   -16.9060 hc         1 A1A       0.058033
     28 H3          73.5420   -76.0850   -16.4490 hc         1 A1A       0.058033
     29 H4          74.6860   -76.9350   -15.4270 hc         1 A1A       0.058033
     30 H5          64.1800   -80.5710   -14.5590 ha         1 A1A       0.133000
     31 H6          63.8310   -79.9310   -16.9130 ha         1 A1A       0.119000
     32 H7          65.3660   -80.7780   -18.6720 ha         1 A1A       0.121000
     33 H8          67.2070   -82.2730   -18.0650 ha         1 A1A       0.126000
     34 H9          64.1260   -82.7220   -13.2670 h1         1 A1A       0.042700
     35 H10         65.3000   -84.0150   -13.5660 h1         1 A1A       0.042700
     36 H11         64.7930   -83.8940   -11.1940 h1         1 A1A       0.082700
     37 H12         66.4870   -83.4450   -11.4560 h1         1 A1A       0.082700
     38 H13         70.2710   -75.7290   -11.0680 h1         1 A1A       0.048367
     39 H14         71.9470   -75.9500   -11.6010 h1         1 A1A       0.048367
     40 H15         70.7800   -75.1050   -12.6470 h1         1 A1A       0.048367
     41 H16         69.9690   -82.5750   -16.7140 hn         1 A1A       0.340500
     42 H17         71.2680   -80.8810   -16.2860 hn         1 A1A       0.173000
     43 O07         66.0710   -82.0910   -13.6630 os         1 A1A      -0.332100
@<TRIPOS>BOND
     1     1    24 2   
     2     2    17 1   
     3     2    18 1   
     4     2    22 2   
     5     3    18 1   
     6     3    19 ar  
     7     3    20 ar  
     8     4     5 ar  
     9     4     7 1   
    10     4    19 ar  
    11     5     6 ar  
    12     5    26 1   
    13     6    20 ar  
    14     6    23 1   
    15     7    27 1   
    16     7    28 1   
    17     7    29 1   
    18     8     9 ar  
    19     8    13 ar  
    20     8    43 1   
    21     9    10 ar  
    22     9    30 1   
    23    10    11 ar  
    24    10    31 1   
    25    11    12 ar  
    26    11    32 1   
    27    12    13 ar  
    28    12    33 1   
    29    13    24 1   
    30    14    15 1   
    31    14    34 1   
    32    14    35 1   
    33    14    43 1   
    34    15    25 1   
    35    15    36 1   
    36    15    37 1   
    37    16    23 1   
    38    16    38 1   
    39    16    39 1   
    40    16    40 1   
    41    17    24 1   
    42    17    41 1   
    43    18    42 1   
    44    21    24 2   
@<TRIPOS>SUBSTRUCTURE
     1 A1A         1 TEMP              0 ****  ****    0 ROOT
