@<TRIPOS>MOLECULE
A1A
   34    36     1     0     0
SMALL
abcg2


@<TRIPOS>ATOM
      1 N1         127.1310   119.4620   175.6370 ns         1 A1A      -0.137000
      2 C4         131.2140   119.6070   174.8810 ca         1 A1A      -0.119000
      3 C5         130.5300   120.7870   175.1430 ca         1 A1A      -0.092000
      4 C6         129.1680   120.7590   175.3990 ca         1 A1A      -0.139000
      5 C7         128.4850   119.5500   175.3560 ca         1 A1A      -0.041000
      6 C8         126.5330   118.3260   176.0770 c          1 A1A       0.560000
      7 C10        128.1730   117.0210   177.4910 c5         1 A1A      -0.080400
      8 C13        126.5300   115.8120   176.1290 c5         1 A1A      -0.080400
      9 N          128.3860   117.1910   175.0000 n          1 A1A      -0.239400
     10 C          129.2720   116.6550   172.7610 c3         1 A1A      -0.176100
     11 O          128.4880   115.0250   174.2840 o          1 A1A      -0.568100
     12 C1         128.6970   116.2040   174.0880 c          1 A1A       0.623100
     13 C11        127.5130   115.8960   178.2850 c5         1 A1A      -0.078900
     14 C12        127.1040   114.9010   177.2070 c5         1 A1A      -0.078900
     15 C2         129.1530   118.3710   175.0400 ca         1 A1A      -0.076000
     16 C3         130.5300   118.4000   174.8550 ca         1 A1A      -0.110000
     17 C9         127.4280   117.0690   176.1190 c5         1 A1A       0.058400
     18 O1         125.3790   118.3340   176.4560 o          1 A1A      -0.532000
     19 H1         126.5960   120.3170   175.7160 hn         1 A1A       0.160000
     20 H2         132.2830   119.6200   174.7170 ha         1 A1A       0.120000
     21 H3         131.0590   121.7300   175.1680 ha         1 A1A       0.119000
     22 H4         128.6320   121.6700   175.6370 ha         1 A1A       0.121000
     23 H5         129.2180   116.7710   177.2980 hc         1 A1A       0.064950
     24 H6         128.1690   117.9760   178.0200 hc         1 A1A       0.064950
     25 H7         125.5410   116.1320   176.4540 hc         1 A1A       0.064950
     26 H8         126.4030   115.3450   175.1590 hc         1 A1A       0.064950
     27 H9         130.3250   116.3860   172.6830 hc         1 A1A       0.065367
     28 H10        128.7450   116.1030   171.9830 hc         1 A1A       0.065367
     29 H11        129.1720   117.7180   172.5620 hc         1 A1A       0.065367
     30 H12        126.6280   116.2640   178.8100 hc         1 A1A       0.052450
     31 H13        128.1870   115.4790   179.0350 hc         1 A1A       0.052450
     32 H14        126.3760   114.1670   177.5540 hc         1 A1A       0.052450
     33 H15        127.9760   114.3590   176.8370 hc         1 A1A       0.052450
     34 H16        131.0730   117.4800   174.6820 ha         1 A1A       0.122000
@<TRIPOS>BOND
     1     1     5 1   
     2     1     6 1   
     3     1    19 1   
     4     2     3 ar  
     5     2    16 ar  
     6     2    20 1   
     7     3     4 ar  
     8     3    21 1   
     9     4     5 ar  
    10     4    22 1   
    11     5    15 ar  
    12     6    17 1   
    13     6    18 2   
    14     7    13 1   
    15     7    17 1   
    16     7    23 1   
    17     7    24 1   
    18     8    14 1   
    19     8    17 1   
    20     8    25 1   
    21     8    26 1   
    22     9    12 1   
    23     9    15 1   
    24     9    17 1   
    25    10    12 1   
    26    10    27 1   
    27    10    28 1   
    28    10    29 1   
    29    11    12 2   
    30    13    14 1   
    31    13    30 1   
    32    13    31 1   
    33    14    32 1   
    34    14    33 1   
    35    15    16 ar  
    36    16    34 1   
@<TRIPOS>SUBSTRUCTURE
     1 A1A         1 TEMP              0 ****  ****    0 ROOT
