@<TRIPOS>MOLECULE
A1A
   43    44     1     0     0
SMALL
abcg2


@<TRIPOS>ATOM
      1 O14         67.7990   -84.1260   -16.1910 o          1 A1A      -0.529500
      2 C15         69.7460   -81.2440   -14.7100 c          1 A1A       0.694100
      3 C18         71.5430   -79.5370   -14.8150 ca         1 A1A       0.305900
      4 C20         73.4020   -78.2910   -15.1180 ca         1 A1A       0.188300
      5 C21         73.0830   -77.5420   -13.9960 ca         1 A1A      -0.341000
      6 C22         71.9060   -77.8910   -13.3350 ca         1 A1A       0.387300
      7 C24         74.6350   -78.0130   -15.9140 c3         1 A1A      -0.152400
      8 C01         66.0410   -81.5420   -15.8050 ca         1 A1A       0.237100
      9 C02         64.8950   -80.7910   -15.5600 ca         1 A1A      -0.220000
     10 C03         64.3350   -80.7840   -14.2900 ca         1 A1A      -0.013000
     11 C04         64.9000   -81.5040   -13.2470 ca         1 A1A      -0.166000
     12 C05         66.0450   -82.2480   -13.4790 ca         1 A1A       0.045000
     13 C06         66.6050   -82.2690   -14.7470 ca         1 A1A      -0.329500
     14 C08         66.1910   -80.8880   -18.0980 c3         1 A1A       0.137600
     15 C09         67.0640   -81.2320   -19.2700 c3         1 A1A       0.181600
     16 C26         72.1770   -76.2000   -11.7020 c3         1 A1A       0.150900
     17 F10         68.3690   -80.8030   -19.0530 f          1 A1A      -0.264000
     18 N12         69.2110   -82.2130   -15.5470 ns         1 A1A      -0.597300
     19 N16         70.7920   -80.5900   -15.3070 ns         1 A1A      -0.319900
     20 N19         72.6320   -79.2950   -15.5320 nb         1 A1A      -0.270000
     21 N23         71.1320   -78.8830   -13.7480 nb         1 A1A      -0.216000
     22 O13         68.4320   -83.8590   -13.7840 o          1 A1A      -0.529500
     23 O17         69.3200   -81.0510   -13.5990 o          1 A1A      -0.536100
     24 O25         71.4430   -77.2840   -12.2530 os         1 A1A      -0.430300
     25 S11         68.0230   -83.2720   -15.0420 sy         1 A1A       1.217300
     26 H1          73.7240   -76.7360   -13.6720 ha         1 A1A       0.137000
     27 H2          75.2990   -78.8780   -15.8910 hc         1 A1A       0.057367
     28 H3          74.3800   -77.8290   -16.9580 hc         1 A1A       0.057367
     29 H4          75.1780   -77.1520   -15.5300 hc         1 A1A       0.057367
     30 H5          64.4290   -80.2140   -16.3460 ha         1 A1A       0.117000
     31 H6          63.4410   -80.2000   -14.1180 ha         1 A1A       0.115000
     32 H7          64.4570   -81.4870   -12.2610 ha         1 A1A       0.125000
     33 H8          66.4990   -82.8110   -12.6770 ha         1 A1A       0.150000
     34 H9          66.2120   -79.8130   -17.8930 h1         1 A1A       0.053700
     35 H10         65.1620   -81.1690   -18.3430 h1         1 A1A       0.053700
     36 H11         66.6750   -80.7380   -20.1610 h1         1 A1A       0.063700
     37 H12         67.0820   -82.3090   -19.4420 h1         1 A1A       0.063700
     38 H13         71.6140   -75.8630   -10.8360 h1         1 A1A       0.048367
     39 H14         73.1720   -76.5110   -11.3800 h1         1 A1A       0.048367
     40 H15         72.2680   -75.3740   -12.4100 h1         1 A1A       0.048367
     41 H16         69.3960   -82.2170   -16.5440 hn         1 A1A       0.350500
     42 H17         71.1590   -80.9620   -16.1720 hn         1 A1A       0.178000
     43 O07         66.6660   -81.6200   -16.9800 os         1 A1A      -0.355100
@<TRIPOS>BOND
     1     1    25 2   
     2     2    18 1   
     3     2    19 1   
     4     2    23 2   
     5     3    19 1   
     6     3    20 ar  
     7     3    21 ar  
     8     4     5 ar  
     9     4     7 1   
    10     4    20 ar  
    11     5     6 ar  
    12     5    26 1   
    13     6    21 ar  
    14     6    24 1   
    15     7    27 1   
    16     7    28 1   
    17     7    29 1   
    18     8     9 ar  
    19     8    13 ar  
    20     8    43 1   
    21     9    10 ar  
    22     9    30 1   
    23    10    11 ar  
    24    10    31 1   
    25    11    12 ar  
    26    11    32 1   
    27    12    13 ar  
    28    12    33 1   
    29    13    25 1   
    30    14    15 1   
    31    14    34 1   
    32    14    35 1   
    33    14    43 1   
    34    15    17 1   
    35    15    36 1   
    36    15    37 1   
    37    16    24 1   
    38    16    38 1   
    39    16    39 1   
    40    16    40 1   
    41    18    25 1   
    42    18    41 1   
    43    19    42 1   
    44    22    25 2   
@<TRIPOS>SUBSTRUCTURE
     1 A1A         1 TEMP              0 ****  ****    0 ROOT
