@<TRIPOS>MOLECULE
A1A
   61    66     1     0     0
SMALL
abcg2


@<TRIPOS>ATOM
      1 C1         -19.0300     6.2680    13.1650 c3         1 A1A      -0.087100
      2 C2         -18.6450     5.0510    12.3390 c3         1 A1A       0.223600
      3 C3         -19.8670     4.2090    12.0210 ca         1 A1A      -0.070300
      4 C4         -20.4540     3.3260    12.9250 ca         1 A1A       0.073500
      5 C5         -21.5760     2.5880    12.5690 ca         1 A1A       0.347900
      6 C6         -21.6340     3.5310    10.5070 ca         1 A1A       0.347900
      7 C10        -15.5100     1.4420    12.9070 ca         1 A1A      -0.099000
      8 C13        -15.6830     1.0560    11.5720 ca         1 A1A      -0.069200
      9 CL1        -19.8530     3.1020    14.5260 cl         1 A1A      -0.167500
     10 N1         -22.1490     2.6870    11.3830 nb         1 A1A      -0.643000
     11 C7         -20.5150     4.2990    10.7890 ca         1 A1A       0.073500
     12 CL2        -19.9450     5.3580     9.5470 cl         1 A1A      -0.167500
     13 O1         -17.6690     4.3320    13.0560 os         1 A1A      -0.335100
     14 C8         -17.0640     3.2680    12.4740 ca         1 A1A       0.105100
     15 C9         -16.2140     2.5360    13.3390 ca         1 A1A      -0.089000
     16 C11        -17.2250     2.8930    11.1580 ca         1 A1A      -0.131000
     17 C12        -16.5380     1.7530    10.7090 ca         1 A1A      -0.184900
     18 N2         -15.1490     0.0510    10.8390 na         1 A1A      -0.051400
     19 N3         -15.6050     0.0410     9.5910 nc         1 A1A      -0.515100
     20 C14        -16.4450     1.0480     9.4720 cd         1 A1A       0.408500
     21 C15        -17.1350     1.3080     8.2100 ca         1 A1A      -0.193900
     22 C16        -16.5480     1.0090     6.9730 ca         1 A1A      -0.013000
     23 C17        -17.2420     1.2240     5.8070 ca         1 A1A      -0.226000
     24 C18        -18.4250     1.8220     8.1700 ca         1 A1A       0.396900
     25 N4         -19.1140     2.0390     7.0580 nb         1 A1A      -0.737000
     26 C19        -18.5490     1.7420     5.8910 ca         1 A1A       0.606900
     27 N5         -19.2870     1.9640     4.7750 nn         1 A1A      -0.768300
     28 C20        -19.1470     1.3050     3.4840 cy         1 A1A       0.226300
     29 C21        -20.7400     2.0240     4.7090 cy         1 A1A       0.226300
     30 C22        -20.6620     1.4370     3.2880 cy         1 A1A      -0.137000
     31 C23        -21.2770     2.1930     2.1020 cy         1 A1A       0.215800
     32 C24        -21.5300     0.2340     2.9060 cy         1 A1A       0.215800
     33 N6         -22.2820     1.1180     2.0000 nq         1 A1A      -0.724500
     34 S1         -22.9490     0.6000     0.5920 s6         1 A1A       1.195100
     35 C25        -21.6170     0.0840    -0.4720 c3         1 A1A      -0.387100
     36 O2         -23.7390    -0.5750     0.9290 o          1 A1A      -0.523500
     37 O3         -23.5900     1.7500    -0.0250 o          1 A1A      -0.523500
     38 H2         -18.1490     6.8750    13.3700 hc         1 A1A       0.054700
     39 H1         -19.7390     6.8790    12.6080 hc         1 A1A       0.054700
     40 H3         -19.4900     5.9870    14.1120 hc         1 A1A       0.054700
     41 H4         -18.2120     5.4040    11.3980 h1         1 A1A       0.063700
     42 H5         -22.0160     1.8990    13.2800 h4         1 A1A       0.042100
     43 H6         -22.1150     3.6070     9.5380 h4         1 A1A       0.042100
     44 H7         -16.1190     2.8650    14.3670 ha         1 A1A       0.130000
     45 H9         -17.8370     3.4540    10.4660 ha         1 A1A       0.129000
     46 H10        -14.4980    -0.6560    11.1420 hn         1 A1A       0.378000
     47 H11        -15.5420     0.6110     6.9330 ha         1 A1A       0.129000
     48 H12        -16.7910     1.0020     4.8490 ha         1 A1A       0.122000
     49 H13        -18.9510     2.0470     9.0930 h4         1 A1A       0.020100
     50 H14        -18.5260     1.8410     2.7630 h1         1 A1A       0.065450
     51 H15        -18.7990     0.2690     3.5480 h1         1 A1A       0.065450
     52 H17        -21.2430     1.3780     5.4340 h1         1 A1A       0.065450
     53 H16        -21.1570     3.0310     4.7850 h1         1 A1A       0.065450
     54 H18        -21.7000     3.1750     2.3080 h1         1 A1A       0.069700
     55 H19        -20.6000     2.2610     1.2450 h1         1 A1A       0.069700
     56 H21        -20.9620    -0.5530     2.4010 h1         1 A1A       0.069700
     57 H20        -22.1360    -0.2090     3.6960 h1         1 A1A       0.069700
     58 H22        -22.0600    -0.2820    -1.3970 h1         1 A1A       0.099700
     59 H23        -20.9660     0.9280    -0.6900 h1         1 A1A       0.099700
     60 H24        -21.0510    -0.7150     0.0030 h1         1 A1A       0.099700
     61 H8         -14.8540     0.9010    13.5770 ha         1 A1A       0.124000
@<TRIPOS>BOND
     1     1     2 1   
     2     1    38 1   
     3     1    39 1   
     4     1    40 1   
     5     2     3 1   
     6     2    13 1   
     7     2    41 1   
     8     3     4 ar  
     9     3    11 ar  
    10     4     5 ar  
    11     4     9 1   
    12     5    10 ar  
    13     5    42 1   
    14     6    10 ar  
    15     6    11 ar  
    16     6    43 1   
    17     7     8 ar  
    18     7    15 ar  
    19     7    61 1   
    20     8    17 ar  
    21     8    18 1   
    22    11    12 1   
    23    13    14 1   
    24    14    15 ar  
    25    14    16 ar  
    26    15    44 1   
    27    16    17 ar  
    28    16    45 1   
    29    17    20 1   
    30    18    19 1   
    31    18    46 1   
    32    19    20 2   
    33    20    21 1   
    34    21    22 ar  
    35    21    24 ar  
    36    22    23 ar  
    37    22    47 1   
    38    23    26 ar  
    39    23    48 1   
    40    24    25 ar  
    41    24    49 1   
    42    25    26 ar  
    43    26    27 1   
    44    27    28 1   
    45    27    29 1   
    46    28    30 1   
    47    28    50 1   
    48    28    51 1   
    49    29    30 1   
    50    29    52 1   
    51    29    53 1   
    52    30    31 1   
    53    30    32 1   
    54    31    33 1   
    55    31    54 1   
    56    31    55 1   
    57    32    33 1   
    58    32    56 1   
    59    32    57 1   
    60    33    34 1   
    61    34    35 1   
    62    34    36 2   
    63    34    37 2   
    64    35    58 1   
    65    35    59 1   
    66    35    60 1   
@<TRIPOS>SUBSTRUCTURE
     1 A1A         1 TEMP              0 ****  ****    0 ROOT
