@<TRIPOS>MOLECULE
A1A
   49    53     1     0     0
SMALL
abcg2


@<TRIPOS>ATOM
      1 C10          0.1150    -2.6540    21.5790 c3         1 A1A       0.063900
      2 C12          5.8560    -5.1780    14.8040 c6         1 A1A      -0.102400
      3 C11          6.0950    -5.6170    16.2530 c6         1 A1A      -0.013400
      4 C14          4.9390    -7.7690    15.7210 c6         1 A1A       0.100100
      5 C16          4.6480    -8.4920    13.3920 cy         1 A1A      -0.001700
      6 C17          3.4240    -9.4020    13.5040 cy         1 A1A       0.142100
      7 C18          4.1510    -8.2360    11.9680 cy         1 A1A       0.142100
      8 C            7.4790    -3.7250    17.2400 ca         1 A1A       0.075000
      9 C5           7.6630    -2.5990    18.0050 ca         1 A1A      -0.002000
     10 C4           6.5650    -2.1100    18.7180 ca         1 A1A      -0.215900
     11 C6           6.3220    -1.0260    19.6020 cc         1 A1A       0.364800
     12 N            5.0780    -1.0220    19.9980 nd         1 A1A      -0.478100
     13 N1           4.4710    -2.0680    19.4140 na         1 A1A       0.221800
     14 C7           3.1230    -2.3320    19.6560 cc         1 A1A      -0.132200
     15 C9           2.1330    -2.6920    18.7280 cc         1 A1A       0.233900
     16 N3           0.9730    -2.8550    19.3350 nd         1 A1A      -0.506800
     17 N2           1.1940    -2.5960    20.6180 na         1 A1A       0.147800
     18 C8           2.4750    -2.2840    20.8710 cd         1 A1A      -0.133000
     19 C3           5.3330    -2.7680    18.6270 ca         1 A1A      -0.030200
     20 C2           5.1600    -3.9190    17.8570 ca         1 A1A      -0.103000
     21 C1           6.2390    -4.4110    17.1490 ca         1 A1A      -0.065300
     22 C15          4.9810    -6.5770    16.6570 c6         1 A1A      -0.102400
     23 N4           4.7170    -7.3290    14.3060 nx         1 A1A      -0.654000
     24 C13          5.7780    -6.3670    13.8700 c6         1 A1A       0.100100
     25 O            3.1510    -9.2470    12.1100 oq         1 A1A      -0.393000
     26 H6          -0.7790    -2.9900    21.0640 h1         1 A1A       0.068367
     27 H7           0.3520    -3.3540    22.3760 h1         1 A1A       0.068367
     28 H8          -0.0680    -1.6710    22.0090 h1         1 A1A       0.068367
     29 H11          6.6650    -4.5390    14.4450 hc         1 A1A       0.088700
     30 H10          4.9360    -4.5890    14.7460 hc         1 A1A       0.088700
     31 H9           7.0300    -6.1840    16.2840 hc         1 A1A       0.080700
     32 H15          4.1290    -8.4460    15.9860 hx         1 A1A       0.096950
     33 H14          5.8760    -8.3260    15.7280 hx         1 A1A       0.096950
     34 H18          5.6060    -9.0070    13.4540 hx         1 A1A       0.123700
     35 H20          2.6210    -9.0090    14.1370 h1         1 A1A       0.086450
     36 H19          3.6290   -10.4350    13.7880 h1         1 A1A       0.086450
     37 H21          4.8670    -8.4500    11.1740 h1         1 A1A       0.086450
     38 H22          3.7250    -7.2400    11.8080 h1         1 A1A       0.086450
     39 H2           8.6260    -2.1090    18.0540 ha         1 A1A       0.149000
     40 H3           7.0110    -0.2670    19.9420 h4         1 A1A       0.067800
     41 H5           2.2250    -2.8330    17.6620 h4         1 A1A       0.037100
     42 H4           2.8330    -2.0460    21.8590 h4         1 A1A       0.179000
     43 H1           4.2000    -4.4140    17.8180 ha         1 A1A       0.120000
     44 H16          4.0040    -6.0860    16.6420 hc         1 A1A       0.088700
     45 H17          5.1350    -6.9550    17.6680 hc         1 A1A       0.088700
     46 H            3.8180    -6.8350    14.2730 hn         1 A1A       0.499000
     47 H13          6.7150    -6.9250    13.8560 hx         1 A1A       0.096950
     48 H12          5.5410    -6.0520    12.8550 hx         1 A1A       0.096950
     49 CL           8.8510    -4.3210    16.3510 cl         1 A1A      -0.208000
@<TRIPOS>BOND
     1     1    17 1   
     2     1    26 1   
     3     1    27 1   
     4     1    28 1   
     5     2     3 1   
     6     2    24 1   
     7     2    29 1   
     8     2    30 1   
     9     3    21 1   
    10     3    22 1   
    11     3    31 1   
    12     4    22 1   
    13     4    23 1   
    14     4    32 1   
    15     4    33 1   
    16     5     6 1   
    17     5     7 1   
    18     5    23 1   
    19     5    34 1   
    20     6    25 1   
    21     6    35 1   
    22     6    36 1   
    23     7    25 1   
    24     7    37 1   
    25     7    38 1   
    26     8     9 ar  
    27     8    21 ar  
    28     8    49 1   
    29     9    10 ar  
    30     9    39 1   
    31    10    11 1   
    32    10    19 ar  
    33    11    12 2   
    34    11    40 1   
    35    12    13 1   
    36    13    14 1   
    37    13    19 1   
    38    14    15 1   
    39    14    18 2   
    40    15    16 2   
    41    15    41 1   
    42    16    17 1   
    43    17    18 1   
    44    18    42 1   
    45    19    20 ar  
    46    20    21 ar  
    47    20    43 1   
    48    22    44 1   
    49    22    45 1   
    50    23    24 1   
    51    23    46 1   
    52    24    47 1   
    53    24    48 1   
@<TRIPOS>SUBSTRUCTURE
     1 A1A         1 TEMP              0 ****  ****    0 ROOT
