@<TRIPOS>MOLECULE
A1A
   52    55     1     0     0
SMALL
abcg2


@<TRIPOS>ATOM
      1 N12        -39.6200    -8.2240     4.8930 nh         1 A1A      -0.789300
      2 C13        -39.6760    -7.7590     3.5250 c6         1 A1A       0.225800
      3 C17        -39.8220    -9.6550     4.9920 c6         1 A1A       0.225800
      4 C21        -36.3570   -10.6600     1.9340 ca         1 A1A      -0.344500
      5 C22        -35.6700    -9.6180     1.3110 ca         1 A1A       0.020000
      6 C24        -33.6960   -10.2600     2.5400 ca         1 A1A       0.034000
      7 C26        -35.7160   -11.4990     2.8360 ca         1 A1A       0.011000
      8 C02        -39.4790    -7.2890     8.2600 ca         1 A1A       0.503000
      9 C04        -39.4730    -7.4310     5.9810 ca         1 A1A       0.662900
     10 C05        -39.1740    -6.0510     5.8910 ca         1 A1A      -0.202000
     11 C06        -39.0390    -5.3340     7.0560 ca         1 A1A      -0.105300
     12 C07        -39.1930    -5.9420     8.3010 ca         1 A1A      -0.179000
     13 C08        -38.6650    -3.8790     7.0190 c3         1 A1A       0.355300
     14 C14        -38.6470    -8.4800     2.6690 c6         1 A1A       0.166300
     15 C16        -38.7880   -10.3930     4.1590 c6         1 A1A       0.166300
     16 C23        -34.3440    -9.4300     1.6220 ca         1 A1A      -0.166300
     17 C25        -34.3760   -11.3120     3.1480 ca         1 A1A      -0.145000
     18 C30        -30.1060    -9.7290     3.5600 c3         1 A1A      -0.178100
     19 C31        -32.1320    -8.6080     1.9330 c5         1 A1A       0.099000
     20 C32        -33.3880    -8.4170     1.0720 c5         1 A1A      -0.038100
     21 F09        -37.4100    -3.7060     7.4530 f          1 A1A      -0.108667
     22 F10        -39.4570    -3.1460     7.8080 f          1 A1A      -0.108667
     23 F11        -38.7350    -3.3560     5.7940 f          1 A1A      -0.108667
     24 N03        -39.6160    -8.0080     7.1760 nb         1 A1A      -0.746000
     25 N15        -38.8580    -9.9240     2.7750 n3         1 A1A      -0.704500
     26 N27        -32.3760    -9.8440     2.6950 n          1 A1A      -0.227400
     27 O29        -31.6770   -11.4280     4.1510 o          1 A1A      -0.567100
     28 S18        -38.0850   -10.8600     1.6370 sy         1 A1A       1.152600
     29 H131       -40.6770    -7.9450     3.1240 h1         1 A1A       0.070700
     30 H132       -39.4940    -6.6920     3.4490 h1         1 A1A       0.070700
     31 H171       -40.8280    -9.9080     4.6400 h1         1 A1A       0.070700
     32 H172       -39.7390    -9.9750     6.0260 h1         1 A1A       0.070700
     33 H221       -36.1580    -8.9700     0.5940 ha         1 A1A       0.135000
     34 H261       -36.2480   -12.3150     3.3050 ha         1 A1A       0.137000
     35 H051       -39.0370    -5.5660     4.9370 ha         1 A1A       0.140000
     36 H071       -39.0950    -5.4090     9.2350 ha         1 A1A       0.156000
     37 H141       -38.7720    -8.1610     1.6360 h1         1 A1A       0.065450
     38 H142       -37.6380    -8.2010     2.9990 h1         1 A1A       0.065450
     39 H162       -37.7900   -10.2270     4.5830 h1         1 A1A       0.065450
     40 H161       -39.0070   -11.4580     4.2000 h1         1 A1A       0.065450
     41 H251       -33.8970   -11.9760     3.8470 ha         1 A1A       0.156000
     42 H303       -29.4630   -10.2440     4.2700 hc         1 A1A       0.067033
     43 H302       -29.6190    -9.7350     2.5840 hc         1 A1A       0.067033
     44 H301       -30.2020    -8.6870     3.8680 hc         1 A1A       0.067033
     45 H311       -31.9890    -7.7730     2.6200 h1         1 A1A       0.053200
     46 H312       -31.2350    -8.7040     1.3250 h1         1 A1A       0.053200
     47 H321       -33.7720    -7.4000     1.1410 hc         1 A1A       0.065700
     48 H322       -33.1820    -8.6140     0.0180 hc         1 A1A       0.065700
     49 CL01       -39.6890    -8.1360     9.7620 cl         1 A1A      -0.161000
     50 C28        -31.4420   -10.4200     3.5100 c          1 A1A       0.616100
     51 O19        -38.4490   -12.2380     1.9160 o          1 A1A      -0.532500
     52 O20        -38.3970   -10.2840     0.3390 o          1 A1A      -0.532500
@<TRIPOS>BOND
     1     1     2 1   
     2     1     3 1   
     3     1     9 1   
     4     2    14 1   
     5     2    29 1   
     6     2    30 1   
     7     3    15 1   
     8     3    31 1   
     9     3    32 1   
    10     4     5 ar  
    11     4     7 ar  
    12     4    28 1   
    13     5    16 ar  
    14     5    33 1   
    15     6    16 ar  
    16     6    17 ar  
    17     6    26 1   
    18     7    17 ar  
    19     7    34 1   
    20     8    12 ar  
    21     8    24 ar  
    22     8    49 1   
    23     9    10 ar  
    24     9    24 ar  
    25    10    11 ar  
    26    10    35 1   
    27    11    12 ar  
    28    11    13 1   
    29    12    36 1   
    30    13    21 1   
    31    13    22 1   
    32    13    23 1   
    33    14    25 1   
    34    14    37 1   
    35    14    38 1   
    36    15    25 1   
    37    15    39 1   
    38    15    40 1   
    39    16    20 1   
    40    17    41 1   
    41    18    42 1   
    42    18    43 1   
    43    18    44 1   
    44    18    50 1   
    45    19    20 1   
    46    19    26 1   
    47    19    45 1   
    48    19    46 1   
    49    20    47 1   
    50    20    48 1   
    51    25    28 1   
    52    26    50 1   
    53    27    50 2   
    54    28    51 2   
    55    28    52 2   
@<TRIPOS>SUBSTRUCTURE
     1 A1A         1 TEMP              0 ****  ****    0 ROOT
