@<TRIPOS>MOLECULE
A1A
   31    30     1     0     0
SMALL
abcg2


@<TRIPOS>ATOM
      1 C01         20.6370    -5.4010   -20.9490 c3         1 A1A      -0.176100
      2 C02         21.9810    -5.8860   -21.4230 c          1 A1A       0.607100
      3 C05         23.2450    -6.7370   -23.3780 c3         1 A1A       0.112700
      4 C06         24.1860    -5.6770   -23.9770 c3         1 A1A      -0.121400
      5 C07         25.2810    -5.1940   -23.0240 c3         1 A1A       0.161300
      6 C09         26.3560    -4.3570   -23.7330 c3         1 A1A       0.178300
      7 C11         25.9520    -2.9320   -24.0910 c3         1 A1A       0.165600
      8 C13         22.7570    -7.7230   -24.4280 c3         1 A1A       0.145600
      9 N04         22.0790    -6.1650   -22.7240 ns         1 A1A      -0.492900
     10 O03         22.9250    -6.0140   -20.6380 o          1 A1A      -0.642100
     11 O08         24.8040    -4.4620   -21.9260 oh         1 A1A      -0.734000
     12 O10         27.5020    -4.2130   -22.9170 oh         1 A1A      -0.653000
     13 O12         24.9750    -2.9500   -25.1060 oh         1 A1A      -0.730000
     14 O14         21.9980    -7.0190   -25.3850 oh         1 A1A      -0.665000
     15 H1          20.7540    -4.4390   -20.4490 hc         1 A1A       0.062700
     16 H2          19.9070    -5.2910   -21.7480 hc         1 A1A       0.062700
     17 H3          20.2410    -6.1020   -20.2150 hc         1 A1A       0.062700
     18 H4          23.7850    -7.3290   -22.6340 h1         1 A1A       0.071700
     19 H5          23.6020    -4.8390   -24.3550 hc         1 A1A       0.069700
     20 H6          24.6920    -6.1190   -24.8410 hc         1 A1A       0.069700
     21 H7          25.8020    -6.1060   -22.6790 h1         1 A1A       0.005700
     22 H8          26.6140    -4.8810   -24.6660 h1         1 A1A       0.035700
     23 H9          25.5970    -2.4130   -23.1930 h1         1 A1A       0.040200
     24 H10         26.8570    -2.4070   -24.4260 h1         1 A1A       0.040200
     25 H11         22.1620    -8.5030   -23.9360 h1         1 A1A       0.029700
     26 H12         23.6310    -8.2110   -24.8760 h1         1 A1A       0.029700
     27 H13         21.2810    -5.9840   -23.3140 hn         1 A1A       0.326500
     28 H14         24.2640    -5.0490   -21.3690 ho         1 A1A       0.538000
     29 H15         27.8240    -5.0910   -22.6890 ho         1 A1A       0.444000
     30 H16         24.6760    -2.0480   -25.2470 ho         1 A1A       0.507000
     31 H17         21.5990    -7.6520   -25.9880 ho         1 A1A       0.448000
@<TRIPOS>BOND
     1     1     2 1   
     2     1    15 1   
     3     1    16 1   
     4     1    17 1   
     5     2     9 1   
     6     2    10 2   
     7     3     4 1   
     8     3     8 1   
     9     3     9 1   
    10     3    18 1   
    11     4     5 1   
    12     4    19 1   
    13     4    20 1   
    14     5     6 1   
    15     5    11 1   
    16     5    21 1   
    17     6     7 1   
    18     6    12 1   
    19     6    22 1   
    20     7    13 1   
    21     7    23 1   
    22     7    24 1   
    23     8    14 1   
    24     8    25 1   
    25     8    26 1   
    26     9    27 1   
    27    11    28 1   
    28    12    29 1   
    29    13    30 1   
    30    14    31 1   
@<TRIPOS>SUBSTRUCTURE
     1 A1A         1 TEMP              0 ****  ****    0 ROOT
