@<TRIPOS>MOLECULE
A1A
   74    77     1     0     0
SMALL
abcg2


@<TRIPOS>ATOM
      1 C10         -7.4560    30.5780    -1.4510 ca         1 A1A      -0.094000
      2 C13         -9.1710    31.6840    -3.3310 ca         1 A1A      -0.145600
      3 C15        -10.0480    32.3030    -4.3790 c          1 A1A       0.609700
      4 C17        -10.2150    33.1790    -1.5600 c3         1 A1A      -0.028100
      5 C24        -16.0200    34.9370     1.7880 c3         1 A1A      -0.152400
      6 C28        -14.9690    33.9600     1.3090 c          1 A1A       0.603100
      7 C01        -13.7010    32.2130    -4.5340 c3         1 A1A      -0.109100
      8 C03        -12.3610    32.4160    -5.2260 c3         1 A1A       0.117700
      9 C04        -12.2990    31.7560    -6.6060 c3         1 A1A      -0.053100
     10 C05        -14.4070    34.2450    -8.6200 ca         1 A1A      -0.105000
     11 C06        -13.7010    33.6320    -7.5630 ca         1 A1A      -0.113000
     12 C07        -13.0840    32.4150    -7.7130 ca         1 A1A      -0.052300
     13 C08        -14.4910    33.6390    -9.8390 ca         1 A1A      -0.101000
     14 C09         -7.3960    30.1540    -2.7720 ca         1 A1A      -0.113000
     15 C11         -8.3650    31.5570    -1.0790 ca         1 A1A      -0.111000
     16 C12         -9.2350    32.1260    -2.0080 ca         1 A1A      -0.054300
     17 C14         -8.2470    30.7150    -3.7110 ca         1 A1A      -0.076000
     18 C18        -11.4480    32.5560    -0.9100 c3         1 A1A      -0.153400
     19 C19        -12.4480    33.5930    -0.4570 c          1 A1A       0.603100
     20 C23        -17.1830    35.1980     0.8410 c3         1 A1A      -0.157400
     21 C25        -18.2220    36.1160     1.4560 c          1 A1A       0.605100
     22 C30        -20.5070    36.9500     1.0410 ca         1 A1A      -0.082000
     23 C31        -21.7540    36.4830     0.6330 ca         1 A1A      -0.123000
     24 C32        -22.8810    37.2340     0.9130 ca         1 A1A      -0.141000
     25 C33        -22.7290    38.4270     1.6020 ca         1 A1A       0.318900
     26 C35        -20.4600    38.1750     1.7090 ca         1 A1A       0.335900
     27 C36        -13.1510    31.7720    -8.9890 ca         1 A1A      -0.031000
     28 C37        -13.8590    32.3920   -10.0530 ca         1 A1A      -0.033000
     29 C38        -12.5150    30.5330    -9.2460 ca         1 A1A      -0.103000
     30 C39        -12.5820    29.9440   -10.4810 ca         1 A1A      -0.107000
     31 C40        -13.2880    30.5620   -11.5310 ca         1 A1A      -0.107000
     32 C41        -13.9140    31.7590   -11.3170 ca         1 A1A      -0.098000
     33 N02        -11.3210    31.8790    -4.3640 ns         1 A1A      -0.512900
     34 N20        -13.7430    33.1860    -0.5580 ns         1 A1A      -0.378500
     35 N22        -14.7540    33.9290    -0.0340 ns         1 A1A      -0.378500
     36 N26        -19.3710    36.1970     0.7310 ns         1 A1A      -0.153000
     37 N34        -21.5450    38.8860     1.9850 nb         1 A1A      -0.648000
     38 O16         -9.6200    33.1400    -5.1600 o          1 A1A      -0.583100
     39 O21        -12.1400    34.6920    -0.0450 o          1 A1A      -0.567100
     40 O27        -18.0330    36.7360     2.4830 o          1 A1A      -0.562100
     41 O29        -14.3410    33.2580     2.0750 o          1 A1A      -0.570100
     42 H1          -6.7920    30.1510    -0.7120 ha         1 A1A       0.117000
     43 H2          -9.7260    33.8420    -0.8450 hc         1 A1A       0.071700
     44 H3         -10.5190    33.8080    -2.3980 hc         1 A1A       0.071700
     45 H4         -15.5020    35.8720     2.0160 hc         1 A1A       0.095700
     46 H5         -16.3910    34.5520     2.7370 hc         1 A1A       0.095700
     47 H6         -13.7190    32.7110    -3.5640 hc         1 A1A       0.042033
     48 H7         -14.5210    32.6110    -5.1290 hc         1 A1A       0.042033
     49 H8         -13.8950    31.1500    -4.3770 hc         1 A1A       0.042033
     50 H9         -12.1600    33.4860    -5.3240 h1         1 A1A       0.078700
     51 H10        -12.6170    30.7140    -6.4930 hc         1 A1A       0.059700
     52 H11        -11.2510    31.7120    -6.9200 hc         1 A1A       0.059700
     53 H12        -14.8810    35.2030    -8.4500 ha         1 A1A       0.113000
     54 H13        -13.6580    34.1600    -6.6200 ha         1 A1A       0.110000
     55 H14        -15.0330    34.1040   -10.6540 ha         1 A1A       0.114000
     56 H15         -6.6840    29.3950    -3.0710 ha         1 A1A       0.118000
     57 H16         -8.3990    31.8950    -0.0500 ha         1 A1A       0.119000
     58 H17         -8.1990    30.3930    -4.7440 ha         1 A1A       0.122000
     59 H18        -11.9210    31.8450    -1.5890 hc         1 A1A       0.061700
     60 H19        -11.1500    31.9790    -0.0290 hc         1 A1A       0.061700
     61 H20        -16.8540    35.6820    -0.0840 hc         1 A1A       0.060200
     62 H21        -17.6570    34.2600     0.5400 hc         1 A1A       0.060200
     63 H22        -21.8370    35.5420     0.1030 ha         1 A1A       0.115000
     64 H23        -23.8620    36.8950     0.6080 ha         1 A1A       0.125000
     65 H24        -23.5920    39.0370     1.8460 h4         1 A1A       0.023100
     66 H25        -19.5180    38.6000     2.0260 h4         1 A1A       0.044100
     67 H26        -11.9600    30.0370    -8.4620 ha         1 A1A       0.111000
     68 H27        -12.0850    28.9980   -10.6530 ha         1 A1A       0.112000
     69 H28        -13.3330    30.0880   -12.5030 ha         1 A1A       0.114000
     70 H29        -14.4570    32.2460   -12.1180 ha         1 A1A       0.113000
     71 H30        -11.5580    31.0980    -3.7720 hn         1 A1A       0.312500
     72 H31        -13.9640    32.2350    -0.8160 hn         1 A1A       0.332500
     73 H32        -15.1870    34.5940    -0.6550 hn         1 A1A       0.333500
     74 H33        -19.4610    35.5680    -0.0540 hn         1 A1A       0.150000
@<TRIPOS>BOND
     1     1    14 ar  
     2     1    15 ar  
     3     1    42 1   
     4     2     3 1   
     5     2    16 ar  
     6     2    17 ar  
     7     3    33 1   
     8     3    38 2   
     9     4    16 1   
    10     4    18 1   
    11     4    43 1   
    12     4    44 1   
    13     5     6 1   
    14     5    20 1   
    15     5    45 1   
    16     5    46 1   
    17     6    35 1   
    18     6    41 2   
    19     7     8 1   
    20     7    47 1   
    21     7    48 1   
    22     7    49 1   
    23     8     9 1   
    24     8    33 1   
    25     8    50 1   
    26     9    12 1   
    27     9    51 1   
    28     9    52 1   
    29    10    11 ar  
    30    10    13 ar  
    31    10    53 1   
    32    11    12 ar  
    33    11    54 1   
    34    12    27 ar  
    35    13    28 ar  
    36    13    55 1   
    37    14    17 ar  
    38    14    56 1   
    39    15    16 ar  
    40    15    57 1   
    41    17    58 1   
    42    18    19 1   
    43    18    59 1   
    44    18    60 1   
    45    19    34 1   
    46    19    39 2   
    47    20    21 1   
    48    20    61 1   
    49    20    62 1   
    50    21    36 1   
    51    21    40 2   
    52    22    23 ar  
    53    22    26 ar  
    54    22    36 1   
    55    23    24 ar  
    56    23    63 1   
    57    24    25 ar  
    58    24    64 1   
    59    25    37 ar  
    60    25    65 1   
    61    26    37 ar  
    62    26    66 1   
    63    27    28 ar  
    64    27    29 ar  
    65    28    32 ar  
    66    29    30 ar  
    67    29    67 1   
    68    30    31 ar  
    69    30    68 1   
    70    31    32 ar  
    71    31    69 1   
    72    32    70 1   
    73    33    71 1   
    74    34    35 1   
    75    34    72 1   
    76    35    73 1   
    77    36    74 1   
@<TRIPOS>SUBSTRUCTURE
     1 A1A         1 TEMP              0 ****  ****    0 ROOT
