@<TRIPOS>MOLECULE
A1A
   16    16     1     0     0
SMALL
abcg2


@<TRIPOS>ATOM
      1 C1           1.7360   -13.7020   -24.9770 c3         1 A1A      -0.111100
      2 C2           2.7290   -14.4260   -24.0870 c3         1 A1A       0.097000
      3 C3           4.5440   -12.8830   -23.4180 c          1 A1A       0.565000
      4 C4           5.9530   -12.4810   -23.7710 c5         1 A1A      -0.098400
      5 C5           4.9290   -14.3460   -25.2070 cs         1 A1A       0.333000
      6 N1           4.0840   -13.9030   -24.2360 n          1 A1A      -0.309400
      7 S1           6.4480   -13.5090   -25.1680 ss         1 A1A      -0.134600
      8 S2           4.6190   -15.5220   -26.3040 s          1 A1A      -0.411400
      9 H12          0.7470   -14.1380   -24.8450 hc         1 A1A       0.051367
     10 H13          1.6740   -12.6430   -24.7270 hc         1 A1A       0.051367
     11 H11          2.0070   -13.7960   -26.0280 hc         1 A1A       0.051367
     12 H23          2.4580   -14.3320   -23.0370 h1         1 A1A       0.077200
     13 H22          2.7640   -15.4880   -24.3240 h1         1 A1A       0.077200
     14 H42          5.9830   -11.4240   -24.0370 h1         1 A1A       0.116700
     15 H43          6.6110   -12.6430   -22.9160 h1         1 A1A       0.116700
     16 O1           3.8930   -12.3870   -22.5380 o          1 A1A      -0.471000
@<TRIPOS>BOND
     1     1     2 1   
     2     1     9 1   
     3     1    10 1   
     4     1    11 1   
     5     2     6 1   
     6     2    12 1   
     7     2    13 1   
     8     3     4 1   
     9     3     6 1   
    10     3    16 2   
    11     4     7 1   
    12     4    14 1   
    13     4    15 1   
    14     5     6 1   
    15     5     7 1   
    16     5     8 2   
@<TRIPOS>SUBSTRUCTURE
     1 A1A         1 TEMP              0 ****  ****    0 ROOT
