@<TRIPOS>MOLECULE
A1A
   22    23     1     0     0
SMALL
abcg2


@<TRIPOS>ATOM
      1 C1           9.7960   -12.4910   -10.3600 c          1 A1A       0.644100
      2 C2          12.1630   -12.6190    -9.6150 ca         1 A1A       0.021000
      3 C3          13.0280   -13.3130    -8.7630 ca         1 A1A      -0.210000
      4 C4          14.3620   -12.9620    -8.7220 ca         1 A1A       0.356900
      5 C5          14.0710   -11.3350   -10.2590 ca         1 A1A       0.356900
      6 C6          12.7150   -11.5940   -10.3860 ca         1 A1A      -0.210000
      7 C7           8.4980   -13.1690   -10.1150 cx         1 A1A      -0.254700
      8 C8           7.2360   -12.3580   -10.2640 cx         1 A1A      -0.092900
      9 C9           7.5790   -13.3660   -11.2960 cx         1 A1A      -0.092900
     10 N1          10.8310   -13.0030    -9.6280 ns         1 A1A      -0.145000
     11 N2          14.8980   -11.9880    -9.4520 nb         1 A1A      -0.682000
     12 O1           9.9190   -11.5710   -11.1470 o          1 A1A      -0.575100
     13 H3          12.6640   -14.1180    -8.1370 ha         1 A1A       0.136000
     14 H4          15.0320   -13.5000    -8.0610 h4         1 A1A       0.017600
     15 H5          14.5060   -10.5400   -10.8550 h4         1 A1A       0.017600
     16 H6          12.1250   -11.0070   -11.0690 ha         1 A1A       0.136000
     17 H7           8.4870   -13.9480    -9.3610 hc         1 A1A       0.086700
     18 H83          6.4380   -12.5780    -9.5680 hc         1 A1A       0.083950
     19 H82          7.3480   -11.3120   -10.5150 hc         1 A1A       0.083950
     20 H92          7.9270   -13.0160   -12.2590 hc         1 A1A       0.083950
     21 H93          7.0210   -14.2930   -11.3240 hc         1 A1A       0.083950
     22 H1          10.6030   -13.7660    -9.0070 hn         1 A1A       0.154000
@<TRIPOS>BOND
     1     1     7 1   
     2     1    10 1   
     3     1    12 2   
     4     2     3 ar  
     5     2     6 ar  
     6     2    10 1   
     7     3     4 ar  
     8     3    13 1   
     9     4    11 ar  
    10     4    14 1   
    11     5     6 ar  
    12     5    11 ar  
    13     5    15 1   
    14     6    16 1   
    15     7     8 1   
    16     7     9 1   
    17     7    17 1   
    18     8     9 1   
    19     8    18 1   
    20     8    19 1   
    21     9    20 1   
    22     9    21 1   
    23    10    22 1   
@<TRIPOS>SUBSTRUCTURE
     1 A1A         1 TEMP              0 ****  ****    0 ROOT
