@<TRIPOS>MOLECULE
A1A
   74    78     1     0     0
SMALL
abcg2


@<TRIPOS>ATOM
      1 N1          10.8250    11.2930    65.6070 na         1 A1A       0.081600
      2 N3          15.9460     6.6580    62.8810 ns         1 A1A      -0.529900
      3 C4          12.7980    10.3040    65.7660 ca         1 A1A      -0.192900
      4 C5          11.4180    10.1110    65.9150 ca         1 A1A      -0.070200
      5 C6          10.8890     8.8720    66.2970 ca         1 A1A      -0.105000
      6 C7          11.7780     7.8490    66.5150 ca         1 A1A      -0.096000
      7 C8          13.1710     8.0370    66.3630 ca         1 A1A       0.078100
      8 C10         15.9620     6.8050    65.3550 ca         1 A1A      -0.080300
      9 C13         17.3340     9.0040    60.5310 cc         1 A1A       0.030600
     10 C15         17.9560    10.9630    59.7290 cd         1 A1A       0.280300
     11 C17         18.7870    12.7460    58.1770 c3         1 A1A      -0.079767
     12 C20         17.9060     7.7360    58.4690 ca         1 A1A       0.004800
     13 C21         19.1430     7.3630    57.9600 ca         1 A1A      -0.103000
     14 C22         19.2480     6.2250    57.1780 ca         1 A1A      -0.107000
     15 C26         16.7810     6.9680    58.1940 ca         1 A1A      -0.103000
     16 C28         18.0200     7.0980    66.5440 ca         1 A1A       0.174000
     17 C1           8.9630    11.9320    67.1000 c3         1 A1A       0.141600
     18 C11         15.1870     6.5000    64.0900 c3         1 A1A       0.166300
     19 C12         16.1930     7.8880    62.3680 c          1 A1A       0.665100
     20 C14         17.4160    10.3340    60.8740 cd         1 A1A      -0.231000
     21 C16         18.2470    12.4330    59.5710 c3         1 A1A      -0.073300
     22 C18         19.2820    12.8520    60.6220 c3         1 A1A      -0.079767
     23 C19         16.9530    13.2230    59.8000 c3         1 A1A      -0.079767
     24 C2           9.4210    11.6170    65.6900 c3         1 A1A       0.094600
     25 C23         18.1360     5.4290    56.9040 ca         1 A1A      -0.070300
     26 C25         16.9050     5.8210    57.4250 ca         1 A1A      -0.107000
     27 C27         17.3510     6.8450    65.3630 ca         1 A1A      -0.137000
     28 C29         17.3610     7.3200    67.7360 ca         1 A1A      -0.143000
     29 C3          12.9110    11.6600    65.3670 cc         1 A1A       0.349800
     30 C30         15.9750     7.2790    67.7320 ca         1 A1A      -0.087000
     31 C31         13.6990     9.2510    65.9920 ca         1 A1A      -0.097000
     32 C9          15.2900     7.0150    66.5570 ca         1 A1A       0.086100
     33 N2          11.7280    12.2200    65.2860 nd         1 A1A      -0.495100
     34 N4          16.9490     7.8730    61.2190 ns         1 A1A      -0.420100
     35 N5          18.1890    10.0940    58.7700 nc         1 A1A      -0.508800
     36 N6          17.7930     8.9020    59.2580 na         1 A1A       0.171000
     37 O1           9.6460    13.0730    67.5550 oh         1 A1A      -0.642000
     38 O2          13.9210     6.9170    66.5960 os         1 A1A      -0.263200
     39 O3          15.7790     8.9160    62.8750 o          1 A1A      -0.599100
     40 H1          16.3480     5.8350    62.4630 hn         1 A1A       0.314500
     41 H2           9.8260     8.7120    66.4180 ha         1 A1A       0.118000
     42 H3          11.4150     6.8730    66.8110 ha         1 A1A       0.125000
     43 H4          19.7180    12.2180    57.9720 hc         1 A1A       0.036589
     44 H5          18.0720    12.4790    57.3980 hc         1 A1A       0.036589
     45 H6          18.9850    13.8160    58.0940 hc         1 A1A       0.036589
     46 H7          20.0180     7.9640    58.1730 ha         1 A1A       0.132500
     47 H8          20.2160     5.9460    56.7790 ha         1 A1A       0.118000
     48 H9          18.4250     3.3100    56.7360 hc         1 A1A       0.045700
     49 H10         17.3640     3.9820    55.5090 hc         1 A1A       0.045700
     50 H11         19.1090     4.2300    55.4050 hc         1 A1A       0.045700
     51 H12         15.8100     7.2690    58.5660 ha         1 A1A       0.132500
     52 H13          7.8760    12.0840    67.0670 h1         1 A1A       0.024700
     53 H14          9.1420    11.0630    67.7450 h1         1 A1A       0.024700
     54 H15         14.2920     7.1200    64.0400 h1         1 A1A       0.074700
     55 H16         14.8400     5.4660    64.1240 h1         1 A1A       0.074700
     56 H17         17.1450    10.7880    61.8090 ha         1 A1A       0.167000
     57 H18         18.9210    12.6670    61.6350 hc         1 A1A       0.036589
     58 H19         20.2190    12.3090    60.4940 hc         1 A1A       0.036589
     59 H20         19.4980    13.9190    60.5370 hc         1 A1A       0.036589
     60 H21         16.5500    13.0510    60.7990 hc         1 A1A       0.036589
     61 H22         17.1390    14.2930    59.6960 hc         1 A1A       0.036589
     62 H23         16.1850    12.9430    59.0760 hc         1 A1A       0.036589
     63 H24          9.2410    12.4640    65.0280 h1         1 A1A       0.071700
     64 H25          8.8420    10.7750    65.3060 h1         1 A1A       0.071700
     65 H26         16.0220     5.2290    57.2150 ha         1 A1A       0.118000
     66 H27         17.9130     6.6800    64.4530 ha         1 A1A       0.132000
     67 H28         17.9100     7.5190    68.6460 ha         1 A1A       0.137000
     68 H29         13.8030    12.2230    65.1360 h4         1 A1A       0.054800
     69 H30         15.4250     7.4440    68.6490 ha         1 A1A       0.134000
     70 H31         14.7630     9.4040    65.8700 ha         1 A1A       0.141000
     71 H32         17.2310     6.9830    60.8330 hn         1 A1A       0.323500
     72 H33          9.4040    13.2240    68.4720 ho         1 A1A       0.444000
     73 F1          19.3630     7.1290    66.5280 f          1 A1A      -0.176000
     74 C24         18.2650     4.1760    56.0910 c3         1 A1A      -0.048800
@<TRIPOS>BOND
     1     1     4 1   
     2     1    24 1   
     3     1    33 1   
     4     2    18 1   
     5     2    19 1   
     6     2    40 1   
     7     3     4 ar  
     8     3    29 1   
     9     3    31 ar  
    10     4     5 ar  
    11     5     6 ar  
    12     5    41 1   
    13     6     7 ar  
    14     6    42 1   
    15     7    31 ar  
    16     7    38 1   
    17     8    18 1   
    18     8    27 ar  
    19     8    32 ar  
    20     9    20 2   
    21     9    34 1   
    22     9    36 1   
    23    10    20 1   
    24    10    21 1   
    25    10    35 2   
    26    11    21 1   
    27    11    43 1   
    28    11    44 1   
    29    11    45 1   
    30    12    13 ar  
    31    12    15 ar  
    32    12    36 1   
    33    13    14 ar  
    34    13    46 1   
    35    14    25 ar  
    36    14    47 1   
    37    15    26 ar  
    38    15    51 1   
    39    16    27 ar  
    40    16    28 ar  
    41    16    73 1   
    42    17    24 1   
    43    17    37 1   
    44    17    52 1   
    45    17    53 1   
    46    18    54 1   
    47    18    55 1   
    48    19    34 1   
    49    19    39 2   
    50    20    56 1   
    51    21    22 1   
    52    21    23 1   
    53    22    57 1   
    54    22    58 1   
    55    22    59 1   
    56    23    60 1   
    57    23    61 1   
    58    23    62 1   
    59    24    63 1   
    60    24    64 1   
    61    25    26 ar  
    62    25    74 1   
    63    26    65 1   
    64    27    66 1   
    65    28    30 ar  
    66    28    67 1   
    67    29    33 2   
    68    29    68 1   
    69    30    32 ar  
    70    30    69 1   
    71    31    70 1   
    72    32    38 1   
    73    34    71 1   
    74    35    36 1   
    75    37    72 1   
    76    48    74 1   
    77    49    74 1   
    78    50    74 1   
@<TRIPOS>SUBSTRUCTURE
     1 A1A         1 TEMP              0 ****  ****    0 ROOT
