@<TRIPOS>MOLECULE
A1A
   24    25     1     0     0
SMALL
abcg2


@<TRIPOS>ATOM
      1 C1         143.1400   150.2610   196.5380 c3         1 A1A       0.155900
      2 C2         142.2220   148.0980   196.6940 c          1 A1A       0.647300
      3 C3         142.4870   146.7430   197.1490 cc         1 A1A      -0.378800
      4 C4         143.6360   146.2410   197.7870 cc         1 A1A       0.474500
      5 C5         141.8510   143.3440   197.6690 cc         1 A1A       0.225100
      6 C6         140.6010   143.1410   197.1490 cd         1 A1A      -0.282000
      7 C7         139.9160   144.2360   196.5830 cd         1 A1A       0.443300
      8 C8         138.5550   144.0150   196.0090 c3         1 A1A      -0.155400
      9 C9         141.6350   145.6370   197.0320 cd         1 A1A       0.488500
     10 N1         143.5530   144.9580   198.0590 nd         1 A1A      -0.634100
     11 N2         142.3420   144.6030   197.5980 na         1 A1A       0.036900
     12 N3         140.4180   145.4550   196.5250 nd         1 A1A      -0.663000
     13 O1         143.2610   148.8960   196.9310 os         1 A1A      -0.452100
     14 O2         141.2010   148.4680   196.1660 o          1 A1A      -0.475000
     15 O3         142.5860   142.4110   198.2210 oh         1 A1A      -0.503100
     16 H1         144.0750   150.7370   196.8220 h1         1 A1A       0.046033
     17 H2         143.0000   150.3580   195.4610 h1         1 A1A       0.046033
     18 H3         142.3150   150.7550   197.0510 h1         1 A1A       0.046033
     19 H4         144.5270   146.7860   198.0590 h4         1 A1A       0.061800
     20 H5         140.1570   142.1570   197.1780 ha         1 A1A       0.156000
     21 H7         138.1070   144.9560   195.7010 hc         1 A1A       0.064033
     22 H8         138.6110   143.3560   195.1410 hc         1 A1A       0.064033
     23 H9         137.9010   143.5310   196.7350 hc         1 A1A       0.064033
     24 H6         143.4390   142.7690   198.5200 ho         1 A1A       0.523000
@<TRIPOS>BOND
     1     1    13 1   
     2     1    16 1   
     3     1    17 1   
     4     1    18 1   
     5     2     3 1   
     6     2    13 1   
     7     2    14 2   
     8     3     4 1   
     9     3     9 2   
    10     4    10 2   
    11     4    19 1   
    12     5     6 2   
    13     5    11 1   
    14     5    15 1   
    15     6     7 1   
    16     6    20 1   
    17     7     8 1   
    18     7    12 2   
    19     8    21 1   
    20     8    22 1   
    21     8    23 1   
    22     9    11 1   
    23     9    12 1   
    24    10    11 1   
    25    15    24 1   
@<TRIPOS>SUBSTRUCTURE
     1 A1A         1 TEMP              0 ****  ****    0 ROOT
