@<TRIPOS>MOLECULE
A1A
   61    60     1     0     0
SMALL
abcg2


@<TRIPOS>ATOM
      1 C1          48.0720    36.5730   103.3180 c          1 A1A       0.599900
      2 C2          47.4350    37.7550   104.0010 c3         1 A1A      -0.298700
      3 C3          46.6370    37.2600   105.1930 c          1 A1A       0.586100
      4 C4          45.9380    38.2860   106.0570 c3         1 A1A      -0.195700
      5 C5          44.4390    37.9340   106.1840 c3         1 A1A       0.184300
      6 C6          43.6770    38.0110   104.8520 c3         1 A1A      -0.053700
      7 C7          43.5650    39.4500   104.3330 c3         1 A1A      -0.062400
      8 C8          42.8210    39.6320   102.9990 c3         1 A1A      -0.167700
      9 C9          43.5120    38.8580   101.8920 c          1 A1A       0.570100
     10 C10         44.7380    39.4800   101.2690 c3         1 A1A      -0.179400
     11 C11         45.5210    38.5480   100.3600 c3         1 A1A      -0.074400
     12 C12         46.6200    39.2490    99.5550 c3         1 A1A      -0.096700
     13 C13         47.2750    38.2620    98.5720 c3         1 A1A       0.179300
     14 C14         48.0490    38.9590    97.4610 c3         1 A1A      -0.068400
     15 C15         48.5870    38.0000    96.4070 c3         1 A1A      -0.083100
     16 C2C         48.5280    38.7520   104.4050 c3         1 A1A      -0.079100
     17 C4C         46.6320    38.3230   107.4230 c3         1 A1A      -0.088100
     18 C6C         42.3080    37.3480   104.9980 c3         1 A1A      -0.088100
     19 C8C         42.6820    41.1200   102.6830 c3         1 A1A      -0.085100
     20 O1C         47.7830    36.1700   102.2200 o          1 A1A      -0.510100
     21 O3C         46.5710    36.0750   105.4350 o          1 A1A      -0.514100
     22 O5C         43.7950    38.7840   107.1050 oh         1 A1A      -0.657000
     23 O9C         43.0980    37.7760   101.5370 o          1 A1A      -0.519100
     24 C12C        47.6400    39.9500   100.4470 c3         1 A1A      -0.079100
     25 O13C        48.1600    37.3630    99.2100 oh         1 A1A      -0.666000
     26 H1          48.8770    36.0900   103.9000 h4         1 A1A       0.000200
     27 H2          46.7320    38.2440   103.3160 hc         1 A1A       0.093700
     28 H3          46.0390    39.2730   105.6000 hc         1 A1A       0.071700
     29 H4          44.3820    36.8930   106.5300 h1         1 A1A       0.050700
     30 H5          44.2500    37.4180   104.1290 hc         1 A1A       0.052700
     31 H6          44.5590    39.8980   104.2330 hc         1 A1A       0.048700
     32 H7          43.0350    40.0540   105.0730 hc         1 A1A       0.048700
     33 H8          41.8170    39.2100   103.0960 hc         1 A1A       0.077700
     34 H9          45.3660    39.8800   102.0720 hc         1 A1A       0.059200
     35 H10         44.4070    40.3650   100.7110 hc         1 A1A       0.059200
     36 H11         44.8330    38.0710    99.6580 hc         1 A1A       0.056200
     37 H12         45.9480    37.7430   100.9670 hc         1 A1A       0.056200
     38 H13         46.1270    40.0100    98.9360 hc         1 A1A       0.047700
     39 H14         46.4570    37.7010    98.0880 h1         1 A1A       0.026700
     40 H15         48.8720    39.5420    97.8840 hc         1 A1A       0.040700
     41 H16         47.3740    39.6770    96.9880 hc         1 A1A       0.040700
     42 H17         49.0710    38.5450    95.5960 hc         1 A1A       0.034700
     43 H18         49.3210    37.3110    96.8240 hc         1 A1A       0.034700
     44 H19         47.7830    37.4050    95.9690 hc         1 A1A       0.034700
     45 H20         48.1080    39.6240   104.9040 hc         1 A1A       0.047033
     46 H21         49.2540    38.2930   105.0760 hc         1 A1A       0.047033
     47 H22         49.0580    39.1060   103.5210 hc         1 A1A       0.047033
     48 H23         46.2320    39.1310   108.0340 hc         1 A1A       0.044367
     49 H24         46.5010    37.3830   107.9620 hc         1 A1A       0.044367
     50 H25         47.7020    38.5030   107.3200 hc         1 A1A       0.044367
     51 H26         42.4020    36.3610   105.4530 hc         1 A1A       0.042033
     52 H27         41.6410    37.9430   105.6240 hc         1 A1A       0.042033
     53 H28         41.8230    37.2120   104.0330 hc         1 A1A       0.042033
     54 H29         42.0700    41.6010   103.4470 hc         1 A1A       0.038700
     55 H30         43.6460    41.6300   102.6670 hc         1 A1A       0.038700
     56 H31         42.1960    41.2860   101.7200 hc         1 A1A       0.038700
     57 H32         44.0100    38.4980   107.9980 ho         1 A1A       0.445000
     58 H33         47.1820    40.7660   101.0070 hc         1 A1A       0.031700
     59 H34         48.0780    39.2630   101.1740 hc         1 A1A       0.031700
     60 H35         48.4570    40.3820    99.8680 hc         1 A1A       0.031700
     61 H36         47.6820    36.8810    99.8930 ho         1 A1A       0.457000
@<TRIPOS>BOND
     1     1     2 1   
     2     1    20 2   
     3     1    26 1   
     4     2     3 1   
     5     2    16 1   
     6     2    27 1   
     7     3     4 1   
     8     3    21 2   
     9     4     5 1   
    10     4    17 1   
    11     4    28 1   
    12     5     6 1   
    13     5    22 1   
    14     5    29 1   
    15     6     7 1   
    16     6    18 1   
    17     6    30 1   
    18     7     8 1   
    19     7    31 1   
    20     7    32 1   
    21     8     9 1   
    22     8    19 1   
    23     8    33 1   
    24     9    10 1   
    25     9    23 2   
    26    10    11 1   
    27    10    34 1   
    28    10    35 1   
    29    11    12 1   
    30    11    36 1   
    31    11    37 1   
    32    12    13 1   
    33    12    24 1   
    34    12    38 1   
    35    13    14 1   
    36    13    25 1   
    37    13    39 1   
    38    14    15 1   
    39    14    40 1   
    40    14    41 1   
    41    15    42 1   
    42    15    43 1   
    43    15    44 1   
    44    16    45 1   
    45    16    46 1   
    46    16    47 1   
    47    17    48 1   
    48    17    49 1   
    49    17    50 1   
    50    18    51 1   
    51    18    52 1   
    52    18    53 1   
    53    19    54 1   
    54    19    55 1   
    55    19    56 1   
    56    22    57 1   
    57    24    58 1   
    58    24    59 1   
    59    24    60 1   
    60    25    61 1   
@<TRIPOS>SUBSTRUCTURE
     1 A1A         1 TEMP              0 ****  ****    0 ROOT
