@<TRIPOS>MOLECULE
A1A
   70    76     1     0     0
SMALL
abcg2


@<TRIPOS>ATOM
      1 C28        124.7510   130.7600    91.6300 ca         1 A1A      -0.091300
      2 C27        124.1800   130.5480    90.4030 ca         1 A1A      -0.071000
      3 C1         123.1410   127.6570   102.3980 c2         1 A1A       0.802100
      4 C10        125.8680   131.3100    94.2580 c5         1 A1A      -0.047700
      5 C11        125.8600   132.0580    95.5990 c6         1 A1A      -0.062400
      6 C12        125.5770   131.1270    96.7680 c6         1 A1A       0.173800
      7 C13        127.0160   130.3630    94.1990 ca         1 A1A      -0.142300
      8 C14        127.0670   129.0950    94.7270 ca         1 A1A      -0.065300
      9 C15        128.2720   128.4140    94.5600 ca         1 A1A      -0.100000
     10 C16        129.3340   129.0070    93.8800 ca         1 A1A      -0.172000
     11 C17        129.2350   130.2750    93.2990 ca         1 A1A       0.120100
     12 C18        128.0260   130.9360    93.4650 ca         1 A1A       0.101100
     13 C19        126.2300   132.2500    93.0960 c5         1 A1A       0.128000
     14 C2         121.2080   128.7210   101.2260 c3         1 A1A       0.210800
     15 C20        125.5640   131.9140    91.7800 ca         1 A1A       0.355300
     16 C21        125.2350   132.5630    89.6020 ca         1 A1A       0.269000
     17 C22        125.4840   133.4920    88.5650 ca         1 A1A      -0.076000
     18 C23        124.9350   133.3030    87.3260 ca         1 A1A      -0.108000
     19 C24        124.1140   132.1840    87.0660 ca         1 A1A      -0.105000
     20 C25        123.8540   131.2730    88.0520 ca         1 A1A      -0.095000
     21 C26        124.4100   131.4420    89.3410 ca         1 A1A      -0.072000
     22 C29        124.5440   129.7950    92.7610 c6         1 A1A      -0.020100
     23 C3         121.8700   129.3580   100.0050 c3         1 A1A      -0.116400
     24 C4         122.0310   128.3910    98.8380 c3         1 A1A      -0.076400
     25 C5         122.5360   129.0410    97.5520 c3         1 A1A      -0.078400
     26 C6         123.9580   129.5730    97.6740 c3         1 A1A       0.177800
     27 C7         124.5880   129.4850    95.2940 c6         1 A1A       0.153500
     28 C8         125.8010   128.5190    95.3040 c6         1 A1A      -0.044100
     29 C9         124.5810   130.4880    94.1140 c6         1 A1A       0.215000
     30 N1         123.4630   128.8630   102.9740 nv         1 A1A      -1.078200
     31 N2         121.9100   127.5910   101.7960 nu         1 A1A      -0.902400
     32 N3         124.4150   130.2940    96.4990 n3         1 A1A      -0.754600
     33 N4         125.7830   132.7730    90.8170 nb         1 A1A      -0.644000
     34 N5         123.8520   126.5880   102.4700 n2         1 A1A      -0.910100
     35 O1         123.4340   131.2980    94.2000 oh         1 A1A      -0.652000
     36 O2         130.2190   130.8710    92.5920 oh         1 A1A      -0.512100
     37 O3         127.6690   132.1360    92.9380 os         1 A1A      -0.297100
     38 H1         123.5410   129.6860    90.2400 ha         1 A1A       0.116000
     39 H2         126.8230   132.5490    95.7530 hc         1 A1A       0.059200
     40 H3         125.1090   132.8530    95.5640 hc         1 A1A       0.059200
     41 H4         126.4710   130.5310    97.0070 h1         1 A1A       0.039700
     42 H5         125.3720   131.7310    97.6550 h1         1 A1A       0.039700
     43 H6         128.3950   127.4080    94.9420 ha         1 A1A       0.115000
     44 H7         130.2600   128.4530    93.7670 ha         1 A1A       0.114000
     45 H8         126.0240   133.2960    93.3310 h1         1 A1A       0.101700
     46 H9         121.0380   129.4770   101.9970 h1         1 A1A       0.055200
     47 H10        120.2150   128.3610   100.9510 h1         1 A1A       0.055200
     48 H11        126.1150   134.3460    88.7750 ha         1 A1A       0.132000
     49 H12        125.1280   134.0160    86.5350 ha         1 A1A       0.115000
     50 H13        123.6890   132.0520    86.0800 ha         1 A1A       0.113000
     51 H14        123.2230   130.4130    87.8590 ha         1 A1A       0.114000
     52 H15        123.5850   129.2860    92.6440 hc         1 A1A       0.063700
     53 H16        125.3080   129.0150    92.7040 hc         1 A1A       0.063700
     54 H17        122.8380   129.7780   100.2930 hc         1 A1A       0.043200
     55 H18        121.2530   130.2070    99.6920 hc         1 A1A       0.043200
     56 H19        121.0620   127.9260    98.6310 hc         1 A1A       0.045200
     57 H20        122.7030   127.5750    99.1190 hc         1 A1A       0.045200
     58 H21        121.8730   129.8640    97.2660 hc         1 A1A       0.048200
     59 H22        122.4740   128.3010    96.7500 hc         1 A1A       0.048200
     60 H23        124.6330   128.7480    97.9520 h1         1 A1A       0.032700
     61 H24        123.9990   130.2800    98.5060 h1         1 A1A       0.032700
     62 H25        123.6920   128.8690    95.1870 h1         1 A1A       0.067700
     63 H26        125.5320   127.6300    94.7260 hc         1 A1A       0.054700
     64 H27        125.9630   128.1550    96.3230 hc         1 A1A       0.054700
     65 H28        124.4360   128.9890   103.2000 hn         1 A1A       0.457000
     66 H29        123.0380   129.7050   102.6230 hn         1 A1A       0.457000
     67 H30        121.7700   126.7130   101.3230 hn         1 A1A       0.489000
     68 H32        124.7000   126.7570   102.9970 hn         1 A1A       0.380400
     69 H33        123.2620   131.3920    95.1510 ho         1 A1A       0.469000
     70 H34        130.9860   130.2890    92.5340 ho         1 A1A       0.461000
@<TRIPOS>BOND
     1     1     2 ar  
     2     1    15 ar  
     3     1    22 1   
     4     2    21 ar  
     5     2    38 1   
     6     3    30 1   
     7     3    31 1   
     8     3    34 2   
     9     4     5 1   
    10     4     7 1   
    11     4    13 1   
    12     4    29 1   
    13     5     6 1   
    14     5    39 1   
    15     5    40 1   
    16     6    32 1   
    17     6    41 1   
    18     6    42 1   
    19     7     8 ar  
    20     7    12 ar  
    21     8     9 ar  
    22     8    28 1   
    23     9    10 ar  
    24     9    43 1   
    25    10    11 ar  
    26    10    44 1   
    27    11    12 ar  
    28    11    36 1   
    29    12    37 1   
    30    13    15 1   
    31    13    37 1   
    32    13    45 1   
    33    14    23 1   
    34    14    31 1   
    35    14    46 1   
    36    14    47 1   
    37    15    33 ar  
    38    16    17 ar  
    39    16    21 ar  
    40    16    33 ar  
    41    17    18 ar  
    42    17    48 1   
    43    18    19 ar  
    44    18    49 1   
    45    19    20 ar  
    46    19    50 1   
    47    20    21 ar  
    48    20    51 1   
    49    22    29 1   
    50    22    52 1   
    51    22    53 1   
    52    23    24 1   
    53    23    54 1   
    54    23    55 1   
    55    24    25 1   
    56    24    56 1   
    57    24    57 1   
    58    25    26 1   
    59    25    58 1   
    60    25    59 1   
    61    26    32 1   
    62    26    60 1   
    63    26    61 1   
    64    27    28 1   
    65    27    29 1   
    66    27    32 1   
    67    27    62 1   
    68    28    63 1   
    69    28    64 1   
    70    29    35 1   
    71    30    65 1   
    72    30    66 1   
    73    31    67 1   
    74    34    68 1   
    75    35    69 1   
    76    36    70 1   
@<TRIPOS>SUBSTRUCTURE
     1 A1A         1 TEMP              0 ****  ****    0 ROOT
