@<TRIPOS>MOLECULE
A1A
   66    70     1     0     0
SMALL
abcg2


@<TRIPOS>ATOM
      1 N1         152.4020   148.1110   119.1340 nb         1 A1A      -0.628000
      2 N3         153.6550   146.6020   107.5650 nb         1 A1A      -0.656000
      3 C4         152.6240   146.9450   115.1450 ca         1 A1A      -0.054500
      4 C5         153.5340   147.8530   115.6200 ca         1 A1A      -0.134000
      5 C6         153.4810   148.2640   116.9680 ca         1 A1A      -0.050000
      6 C7         154.3940   149.1960   117.5090 ca         1 A1A      -0.075000
      7 C8         154.2890   149.5550   118.8230 ca         1 A1A      -0.154000
      8 C10        152.4950   147.7450   117.8400 ca         1 A1A       0.250000
      9 C13        153.1390   146.5810   110.2180 c3         1 A1A       0.056600
     10 C15        154.7330   146.5810   108.3230 ca         1 A1A       0.311300
     11 C17        156.1090   147.4720   106.5690 ca         1 A1A      -0.126300
     12 C20        152.4590   147.1010   105.5590 cp         1 A1A      -0.167500
     13 C21        152.3670   146.7630   104.2100 ca         1 A1A      -0.048000
     14 C22        151.1460   146.7890   103.5520 ca         1 A1A      -0.158500
     15 C24        150.0710   147.5080   105.5940 ca         1 A1A      -0.158500
     16 C26        157.4450   147.9620   106.0050 c3         1 A1A       0.239300
     17 C28        158.6190   147.5620   106.8960 c3         1 A1A      -0.106100
     18 C1         149.6670   145.4410   117.7410 c3         1 A1A       0.139900
     19 C2         151.5580   146.7950   117.3220 ca         1 A1A       0.175100
     20 N2         152.8710   146.3670   111.6200 na         1 A1A       0.104800
     21 O2         155.5560   146.6330   110.5250 oh         1 A1A      -0.647000
     22 C3         151.6360   146.4080   116.0080 ca         1 A1A      -0.198000
     23 O3         157.6330   147.4360   104.7060 oh         1 A1A      -0.644000
     24 N4         152.1420   145.3360   112.0220 nc         1 A1A      -0.179800
     25 N5         151.9980   145.4270   113.2940 nd         1 A1A      -0.345000
     26 C9         153.2640   148.9770   119.5980 ca         1 A1A       0.336900
     27 C11        152.6380   146.5310   113.7450 cd         1 A1A       0.262500
     28 C12        153.2100   147.1490   112.6590 cc         1 A1A      -0.206000
     29 C14        154.5290   146.0950   109.7530 c3         1 A1A       0.079700
     30 C16        155.9770   146.9900   107.8660 ca         1 A1A      -0.081000
     31 C18        154.9420   147.5020   105.8140 ca         1 A1A       0.169000
     32 C19        153.7270   147.0500   106.3180 cp         1 A1A       0.377500
     33 C23        150.0180   147.1630   104.2570 ca         1 A1A       0.189000
     34 C25        151.2960   147.4670   106.2390 ca         1 A1A      -0.048000
     35 C27        157.4100   149.4840   105.8800 c3         1 A1A      -0.106100
     36 C29        154.6440   144.5560   109.7630 c3         1 A1A       0.276000
     37 F1         154.9540   148.0180   104.5820 f          1 A1A      -0.146000
     38 F2         148.8340   147.1900   103.6290 f          1 A1A      -0.174000
     39 F3         153.6430   143.9740   109.1030 f          1 A1A      -0.101667
     40 F4         154.6380   144.0670   111.0090 f          1 A1A      -0.101667
     41 F5         155.7870   144.1580   109.2000 f          1 A1A      -0.101667
     42 H1         154.3060   148.2620   114.9790 ha         1 A1A       0.111000
     43 H2         155.1650   149.6160   116.8750 ha         1 A1A       0.117000
     44 H3         154.9690   150.2660   119.2720 ha         1 A1A       0.123000
     45 H4         153.0880   147.6540   110.0350 h1         1 A1A       0.104200
     46 H5         152.3380   146.1160   109.6520 h1         1 A1A       0.104200
     47 H6         153.2400   146.4440   103.6580 ha         1 A1A       0.125000
     48 H7         151.0750   146.5150   102.5080 ha         1 A1A       0.136500
     49 H8         149.1750   147.8030   106.1230 ha         1 A1A       0.136500
     50 H9         158.5810   148.0420   107.8730 hc         1 A1A       0.050200
     51 H10        158.6680   146.4820   107.0480 hc         1 A1A       0.050200
     52 H11        159.5460   147.8770   106.4150 hc         1 A1A       0.050200
     53 H12        149.0240   145.2320   118.5910 h1         1 A1A       0.045033
     54 H13        149.0620   145.8640   116.9340 h1         1 A1A       0.045033
     55 H14        150.1110   144.5040   117.3950 h1         1 A1A       0.045033
     56 H15        155.5390   146.2940   111.4290 ho         1 A1A       0.478000
     57 H16        150.9350   145.6950   115.5960 ha         1 A1A       0.142000
     58 H17        157.8000   146.4900   104.7810 ho         1 A1A       0.448000
     59 H18        153.1640   149.2520   120.6430 h4         1 A1A       0.021100
     60 H19        153.7670   148.0650   112.5470 h4         1 A1A       0.173000
     61 H20        156.8360   146.9420   108.5170 ha         1 A1A       0.150000
     62 H21        151.3480   147.7320   107.2860 ha         1 A1A       0.125000
     63 H22        157.2290   149.9360   106.8550 hc         1 A1A       0.050200
     64 H23        158.3710   149.8490   105.5130 hc         1 A1A       0.050200
     65 H24        156.6340   149.8270   105.1980 hc         1 A1A       0.050200
     66 O1         150.6480   146.3530   118.1950 os         1 A1A      -0.306100
@<TRIPOS>BOND
     1     1     8 ar  
     2     1    26 ar  
     3     2    10 ar  
     4     2    32 ar  
     5     3     4 ar  
     6     3    22 ar  
     7     3    27 1   
     8     4     5 ar  
     9     4    42 1   
    10     5     6 ar  
    11     5     8 ar  
    12     6     7 ar  
    13     6    43 1   
    14     7    26 ar  
    15     7    44 1   
    16     8    19 ar  
    17     9    20 1   
    18     9    29 1   
    19     9    45 1   
    20     9    46 1   
    21    10    29 1   
    22    10    30 ar  
    23    11    16 1   
    24    11    30 ar  
    25    11    31 ar  
    26    12    13 ar  
    27    12    32 1   
    28    12    34 ar  
    29    13    14 ar  
    30    13    47 1   
    31    14    33 ar  
    32    14    48 1   
    33    15    33 ar  
    34    15    34 ar  
    35    15    49 1   
    36    16    17 1   
    37    16    23 1   
    38    16    35 1   
    39    17    50 1   
    40    17    51 1   
    41    17    52 1   
    42    18    53 1   
    43    18    54 1   
    44    18    55 1   
    45    18    66 1   
    46    19    22 ar  
    47    19    66 1   
    48    20    24 1   
    49    20    28 1   
    50    21    29 1   
    51    21    56 1   
    52    22    57 1   
    53    23    58 1   
    54    24    25 2   
    55    25    27 1   
    56    26    59 1   
    57    27    28 2   
    58    28    60 1   
    59    29    36 1   
    60    30    61 1   
    61    31    32 ar  
    62    31    37 1   
    63    33    38 1   
    64    34    62 1   
    65    35    63 1   
    66    35    64 1   
    67    35    65 1   
    68    36    39 1   
    69    36    40 1   
    70    36    41 1   
@<TRIPOS>SUBSTRUCTURE
     1 A1A         1 TEMP              0 ****  ****    0 ROOT
