@<TRIPOS>MOLECULE
A1A
   17    18     1     0     0
SMALL
abcg2


@<TRIPOS>ATOM
      1 C1           9.3560   -13.0000   -10.2470 ca         1 A1A       0.447000
      2 C2           9.8560   -13.9300    -9.3490 ca         1 A1A      -0.150000
      3 C3          11.1750   -13.7950    -8.9600 ca         1 A1A      -0.046000
      4 C4          11.9390   -12.7460    -9.4740 ca         1 A1A      -0.169500
      5 C5          11.3130   -11.8790   -10.3680 ca         1 A1A       0.370900
      6 C6          13.3260   -12.5430    -9.1120 cc         1 A1A       0.154500
      7 C7          14.2990   -11.6850    -9.5120 cd         1 A1A       0.247900
      8 C8          15.1390   -12.9330    -8.0380 cc         1 A1A       0.439900
      9 N1          10.0510   -12.0060   -10.7460 nb         1 A1A      -0.656000
     10 N2          15.4500   -11.9540    -8.8100 nd         1 A1A      -0.670000
     11 O1          13.8740   -13.3420    -8.1640 os         1 A1A      -0.258000
     12 CL1          7.7070   -13.1280   -10.7640 cl         1 A1A      -0.159000
     13 H2           9.2410   -14.7320    -8.9680 ha         1 A1A       0.143000
     14 H3          11.5950   -14.5070    -8.2630 ha         1 A1A       0.137000
     15 H5          11.8530   -11.0410   -10.7960 h4         1 A1A       0.030100
     16 H7          14.2480   -10.9040   -10.2540 h4         1 A1A       0.053100
     17 H8          15.7620   -13.4470    -7.3220 h5         1 A1A       0.087100
@<TRIPOS>BOND
     1     1     2 ar  
     2     1     9 ar  
     3     1    12 1   
     4     2     3 ar  
     5     2    13 1   
     6     3     4 ar  
     7     3    14 1   
     8     4     5 ar  
     9     4     6 1   
    10     5     9 ar  
    11     5    15 1   
    12     6     7 2   
    13     6    11 1   
    14     7    10 1   
    15     7    16 1   
    16     8    10 2   
    17     8    11 1   
    18     8    17 1   
@<TRIPOS>SUBSTRUCTURE
     1 A1A         1 TEMP              0 ****  ****    0 ROOT
