@<TRIPOS>MOLECULE
A1A
   19    19     1     0     0
SMALL
abcg2


@<TRIPOS>ATOM
      1 C1          11.4450   -12.7210    -5.0120 c3         1 A1A      -0.052800
      2 C2          11.5720   -12.7810    -6.5080 ca         1 A1A      -0.060300
      3 C3          11.0290   -13.8440    -7.2230 ca         1 A1A      -0.090000
      4 C4          11.1500   -13.9370    -8.6030 ca         1 A1A      -0.136000
      5 C5          11.8340   -12.9410    -9.2680 ca         1 A1A       0.164000
      6 C6          12.3960   -11.8710    -8.6020 ca         1 A1A      -0.120000
      7 C7          12.2550   -11.7930    -7.2220 ca         1 A1A      -0.126600
      8 C8          12.9180   -10.6500    -6.5040 c          1 A1A       0.616700
      9 N1          12.1140    -9.6120    -6.2500 nt         1 A1A      -0.604000
     10 O1          14.0980   -10.6980    -6.1970 o          1 A1A      -0.588100
     11 F1          11.9600   -13.0120   -10.6030 f          1 A1A      -0.177000
     12 H12         12.4090   -12.8890    -4.5270 hc         1 A1A       0.049367
     13 H11         11.0770   -11.7530    -4.6740 hc         1 A1A       0.049367
     14 H13         10.7580   -13.4830    -4.6480 hc         1 A1A       0.049367
     15 H3          10.4950   -14.6220    -6.6910 ha         1 A1A       0.119000
     16 H4          10.7190   -14.7690    -9.1450 ha         1 A1A       0.134000
     17 H6          12.9280   -11.1050    -9.1530 ha         1 A1A       0.139000
     18 HN11        12.4640    -8.7900    -5.7820 hn         1 A1A       0.317000
     19 HN12        11.1550    -9.6020    -6.5530 hn         1 A1A       0.317000
@<TRIPOS>BOND
     1     1     2 1   
     2     1    12 1   
     3     1    13 1   
     4     1    14 1   
     5     2     3 ar  
     6     2     7 ar  
     7     3     4 ar  
     8     3    15 1   
     9     4     5 ar  
    10     4    16 1   
    11     5     6 ar  
    12     5    11 1   
    13     6     7 ar  
    14     6    17 1   
    15     7     8 1   
    16     8     9 1   
    17     8    10 2   
    18     9    18 1   
    19     9    19 1   
@<TRIPOS>SUBSTRUCTURE
     1 A1A         1 TEMP              0 ****  ****    0 ROOT
