@<TRIPOS>MOLECULE
A1A
   21    22     1     0     0
SMALL
abcg2


@<TRIPOS>ATOM
      1 C1         -11.7650   -28.3120   -30.0850 c3         1 A1A       0.075900
      2 C10         -9.3220   -28.9200   -34.9900 c          1 A1A       0.712600
      3 C2         -13.4610   -26.8240   -31.1690 cc         1 A1A      -0.196100
      4 C4         -12.7300   -26.8540   -33.2840 ca         1 A1A      -0.114800
      5 C5         -12.4480   -26.7350   -34.6510 ca         1 A1A      -0.114000
      6 C6         -11.3580   -27.4010   -35.1710 ca         1 A1A      -0.099000
      7 C7         -10.5160   -28.2000   -34.3710 ca         1 A1A      -0.116600
      8 C3         -13.7350   -26.3340   -32.4140 cd         1 A1A      -0.248200
      9 C8         -10.7800   -28.3270   -33.0170 ca         1 A1A      -0.115000
     10 C9         -11.8800   -27.6550   -32.4900 ca         1 A1A      -0.061200
     11 N1         -12.3490   -27.6180   -31.2050 na         1 A1A      -0.097700
     12 O1          -9.1380   -28.7490   -36.2110 o          1 A1A      -0.723500
     13 O2          -8.6280   -29.6180   -34.2230 o          1 A1A      -0.723500
     14 H1         -11.7820   -29.3910   -30.2400 h1         1 A1A       0.037033
     15 H2         -10.7320   -28.0010   -29.9280 h1         1 A1A       0.037033
     16 H3         -12.3330   -28.0840   -29.1870 h1         1 A1A       0.037033
     17 H4         -13.9830   -26.6670   -30.2380 h4         1 A1A       0.186000
     18 H6         -13.0780   -26.1290   -35.2910 ha         1 A1A       0.088000
     19 H7         -11.1360   -27.3130   -36.2260 ha         1 A1A       0.125000
     20 H5         -14.5540   -25.6820   -32.6730 ha         1 A1A       0.184000
     21 H8         -10.1400   -28.9380   -32.3930 ha         1 A1A       0.128000
@<TRIPOS>BOND
     1     1    11 1   
     2     1    14 1   
     3     1    15 1   
     4     1    16 1   
     5     2     7 1   
     6     2    12 1   
     7     2    13 1   
     8     3     8 2   
     9     3    11 1   
    10     3    17 1   
    11     4     5 ar  
    12     4     8 1   
    13     4    10 ar  
    14     5     6 ar  
    15     5    18 1   
    16     6     7 ar  
    17     6    19 1   
    18     7     9 ar  
    19     8    20 1   
    20     9    10 ar  
    21     9    21 1   
    22    10    11 1   
@<TRIPOS>SUBSTRUCTURE
     1 A1A         1 TEMP              0 ****  ****    0 ROOT
