@<TRIPOS>MOLECULE
A1A
   16    17     1     0     0
SMALL
abcg2


@<TRIPOS>ATOM
      1 C1           1.2080    -9.1150   -26.5000 cc         1 A1A      -0.034900
      2 C2           1.6960    -8.5350   -27.7030 cc         1 A1A      -0.108000
      3 C3           0.8530    -8.7530   -28.7450 cd         1 A1A      -0.248000
      4 C4           0.0130    -9.7650   -26.6370 cd         1 A1A      -0.204500
      5 C5          -0.8090   -10.4670   -25.6650 cd         1 A1A       0.310500
      6 C6          -2.2180   -10.4730   -25.5880 cd         1 A1A      -0.212000
      7 C7          -2.4950   -11.2780   -24.5100 cc         1 A1A      -0.175000
      8 N1          -1.3080   -11.6870   -24.0320 na         1 A1A       0.003800
      9 N2          -0.2760   -11.2170   -24.7110 nc         1 A1A      -0.484800
     10 S1          -0.5160    -9.6640   -28.2760 ss         1 A1A       0.232000
     11 BR1          2.1300    -8.9190   -24.8830 br         1 A1A      -0.057100
     12 H1           2.6210    -7.9830   -27.7780 ha         1 A1A       0.147000
     13 H2           0.9680    -8.4250   -29.7670 h4         1 A1A       0.153000
     14 H3          -2.9210    -9.9480   -26.2140 ha         1 A1A       0.150000
     15 H4          -3.4270   -11.5760   -24.0590 h4         1 A1A       0.156000
     16 H5          -1.1490   -12.2940   -23.2430 hn         1 A1A       0.374000
@<TRIPOS>BOND
     1     1     2 1   
     2     1     4 2   
     3     1    11 1   
     4     2     3 2   
     5     2    12 1   
     6     3    10 1   
     7     3    13 1   
     8     4     5 1   
     9     4    10 1   
    10     5     6 1   
    11     5     9 2   
    12     6     7 2   
    13     6    14 1   
    14     7     8 1   
    15     7    15 1   
    16     8     9 1   
    17     8    16 1   
@<TRIPOS>SUBSTRUCTURE
     1 A1A         1 TEMP              0 ****  ****    0 ROOT
