@<TRIPOS>MOLECULE
A1A
   18    18     1     0     0
SMALL
abcg2


@<TRIPOS>ATOM
      1 C1           6.6650    34.9110    26.4270 cs         1 A1A       0.484400
      2 C2           6.7530    32.7240    25.3050 ca         1 A1A       0.049600
      3 C3           8.0850    32.5420    24.9440 ca         1 A1A      -0.054000
      4 C4           8.4170    31.6390    23.9490 ca         1 A1A      -0.134000
      5 C5           7.4210    30.9070    23.3340 ca         1 A1A       0.182000
      6 C6           6.0950    31.0700    23.6930 ca         1 A1A       0.075000
      7 C7           5.7580    31.9890    24.6740 ca         1 A1A      -0.098000
      8 F1           7.7350    30.0200    22.3890 f          1 A1A      -0.157000
      9 N1           6.2320    35.5200    27.5300 nt         1 A1A      -0.554000
     10 N2           6.3870    33.5910    26.3510 ns         1 A1A      -0.377100
     11 S1           7.4770    35.7580    25.2240 s          1 A1A      -0.644400
     12 CL1          4.8810    30.1380    22.9040 cl         1 A1A      -0.164000
     13 H4           8.8640    33.0990    25.4450 ha         1 A1A       0.144000
     14 H5           9.4500    31.4890    23.6620 ha         1 A1A       0.143000
     15 H6           4.7200    32.1290    24.9480 ha         1 A1A       0.133000
     16 H2           6.3920    36.5060    27.6410 hn         1 A1A       0.329500
     17 H1           5.7580    35.0370    28.2770 hn         1 A1A       0.329500
     18 H3           5.7650    33.1990    27.0440 hn         1 A1A       0.311500
@<TRIPOS>BOND
     1     1     9 1   
     2     1    10 1   
     3     1    11 2   
     4     2     3 ar  
     5     2     7 ar  
     6     2    10 1   
     7     3     4 ar  
     8     3    13 1   
     9     4     5 ar  
    10     4    14 1   
    11     5     6 ar  
    12     5     8 1   
    13     6     7 ar  
    14     6    12 1   
    15     7    15 1   
    16     9    16 1   
    17     9    17 1   
    18    10    18 1   
@<TRIPOS>SUBSTRUCTURE
     1 A1A         1 TEMP              0 ****  ****    0 ROOT
