@<TRIPOS>MOLECULE
A1A
   14    15     1     0     0
SMALL
abcg2


@<TRIPOS>ATOM
      1 C1           0.3370   -11.5080   -23.2300 cc         1 A1A       0.296900
      2 C2          -1.8490   -11.4360   -23.5420 ca         1 A1A      -0.105200
      3 C3          -3.0700   -11.1670   -24.1720 ca         1 A1A       0.344900
      4 C4          -1.9310   -10.2380   -25.9460 ca         1 A1A       0.295900
      5 C5          -0.6840   -10.4570   -25.4100 ca         1 A1A      -0.078000
      6 C6          -0.6430   -11.0790   -24.1600 ca         1 A1A      -0.180900
      7 N1          -0.2050   -12.0570   -22.1780 nd         1 A1A      -0.468100
      8 N2          -1.5200   -12.0140   -22.3630 na         1 A1A      -0.042400
      9 N3          -3.0890   -10.5830   -25.3450 nb         1 A1A      -0.641000
     10 BR1          2.1770   -11.3460   -23.4090 br         1 A1A       0.001700
     11 H2          -4.0170   -11.4310   -23.7140 h4         1 A1A       0.027100
     12 H3          -2.0270    -9.7600   -26.9130 h4         1 A1A       0.025100
     13 H4           0.2130   -10.1580   -25.9370 ha         1 A1A       0.137000
     14 H1          -2.1350   -12.3950   -21.6600 hn         1 A1A       0.386000
@<TRIPOS>BOND
     1     1     6 1   
     2     1     7 2   
     3     1    10 1   
     4     2     3 ar  
     5     2     6 ar  
     6     2     8 1   
     7     3     9 ar  
     8     3    11 1   
     9     4     5 ar  
    10     4     9 ar  
    11     4    12 1   
    12     5     6 ar  
    13     5    13 1   
    14     7     8 1   
    15     8    14 1   
@<TRIPOS>SUBSTRUCTURE
     1 A1A         1 TEMP              0 ****  ****    0 ROOT
