@<TRIPOS>MOLECULE
A1A
   19    19     1     0     0
SMALL
abcg2


@<TRIPOS>ATOM
      1 C1           2.5900    -9.6720   -23.4720 c3         1 A1A      -0.129400
      2 C2           1.2690   -10.2890   -23.7220 cc         1 A1A       0.171300
      3 C3           0.1980    -9.9110   -24.4610 cd         1 A1A      -0.186000
      4 C4          -0.7990   -10.9180   -24.2890 cd         1 A1A      -0.158600
      5 C5          -2.1790   -10.9320   -24.8340 c          1 A1A       0.641700
      6 C6          -0.2410   -11.8390   -23.4590 cc         1 A1A       0.062300
      7 C7          -0.7240   -13.1170   -22.8640 c3         1 A1A       0.305700
      8 F1           0.3100   -13.8760   -22.4920 f          1 A1A      -0.096333
      9 F2          -1.4720   -12.9130   -21.7730 f          1 A1A      -0.096333
     10 F3          -1.4560   -13.8290   -23.7170 f          1 A1A      -0.096333
     11 N1          -2.3400   -10.2440   -25.9730 nt         1 A1A      -0.600000
     12 O1          -3.0850   -11.5130   -24.2570 o          1 A1A      -0.584100
     13 O2           1.0000   -11.4660   -23.1180 os         1 A1A      -0.205000
     14 H12          3.4050   -10.3110   -23.8160 hc         1 A1A       0.063033
     15 H13          2.6540    -8.7260   -24.0040 hc         1 A1A       0.063033
     16 H11          2.7460    -9.4750   -22.4100 hc         1 A1A       0.063033
     17 H3           0.1210    -9.0040   -25.0400 ha         1 A1A       0.147000
     18 HN11        -3.2460   -10.2060   -26.4120 hn         1 A1A       0.318000
     19 HN12        -1.5670    -9.8540   -26.4830 hn         1 A1A       0.318000
@<TRIPOS>BOND
     1     1     2 1   
     2     1    14 1   
     3     1    15 1   
     4     1    16 1   
     5     2     3 2   
     6     2    13 1   
     7     3     4 1   
     8     3    17 1   
     9     4     5 1   
    10     4     6 2   
    11     5    11 1   
    12     5    12 2   
    13     6     7 1   
    14     6    13 1   
    15     7     8 1   
    16     7     9 1   
    17     7    10 1   
    18    11    18 1   
    19    11    19 1   
@<TRIPOS>SUBSTRUCTURE
     1 A1A         1 TEMP              0 ****  ****    0 ROOT
