@<TRIPOS>MOLECULE
A1A
   26    27     1     0     0
SMALL
abcg2


@<TRIPOS>ATOM
      1 C10          5.8060    30.4090    24.7810 c6         1 A1A       0.142600
      2 C11          7.2780    30.0470    24.8060 c6         1 A1A       0.172800
      3 C2          12.0600    30.6970    23.1570 ca         1 A1A      -0.081000
      4 C3          11.2900    30.2970    22.0640 ca         1 A1A      -0.025500
      5 C4           9.9280    30.1330    22.1810 ca         1 A1A      -0.195500
      6 C5           9.2570    30.3750    23.3990 ca         1 A1A       0.354000
      7 C6          10.0570    30.7540    24.5000 ca         1 A1A      -0.195500
      8 C7          11.4180    30.9160    24.3780 ca         1 A1A      -0.025500
      9 C8           7.1280    29.7120    22.3990 c6         1 A1A       0.172800
     10 C9           5.6610    30.0860    22.5130 c6         1 A1A       0.142600
     11 N1          14.6040    31.0110    22.9280 n1         1 A1A      -0.469000
     12 N2           7.8960    30.2650    23.5050 nh         1 A1A      -0.800400
     13 O1           5.1160    29.7340    23.7590 os         1 A1A      -0.437000
     14 H102         5.7030    31.4960    24.6620 h1         1 A1A       0.055950
     15 H103         5.3540    30.1290    25.7330 h1         1 A1A       0.055950
     16 H113         7.4070    29.0020    25.1190 h1         1 A1A       0.052200
     17 H112         7.7440    30.6730    25.5620 h1         1 A1A       0.052200
     18 H3          11.7630    30.1030    21.1100 ha         1 A1A       0.121000
     19 H4           9.3930    29.8020    21.3050 ha         1 A1A       0.116000
     20 H6           9.6230    30.9400    25.4700 ha         1 A1A       0.116000
     21 H7          11.9920    31.2170    25.2450 ha         1 A1A       0.121000
     22 H82          7.4790    30.1200    21.4530 h1         1 A1A       0.052200
     23 H83          7.2410    28.6210    22.3530 h1         1 A1A       0.052200
     24 H92          5.5490    31.1660    22.3360 h1         1 A1A       0.055950
     25 H93          5.1000    29.5610    21.7390 h1         1 A1A       0.055950
     26 C1          13.4640    30.8680    23.0330 cg         1 A1A       0.336000
@<TRIPOS>BOND
     1     1     2 1   
     2     1    13 1   
     3     1    14 1   
     4     1    15 1   
     5     2    12 1   
     6     2    16 1   
     7     2    17 1   
     8     3     4 ar  
     9     3     8 ar  
    10     3    26 1   
    11     4     5 ar  
    12     4    18 1   
    13     5     6 ar  
    14     5    19 1   
    15     6     7 ar  
    16     6    12 1   
    17     7     8 ar  
    18     7    20 1   
    19     8    21 1   
    20     9    10 1   
    21     9    12 1   
    22     9    22 1   
    23     9    23 1   
    24    10    13 1   
    25    10    24 1   
    26    10    25 1   
    27    11    26 3   
@<TRIPOS>SUBSTRUCTURE
     1 A1A         1 TEMP              0 ****  ****    0 ROOT
