@<TRIPOS>MOLECULE
A1A
   92    95     1     0     0
SMALL
abcg2


@<TRIPOS>ATOM
      1 O9         -22.7800   -14.9490   -35.1610 o          1 A1A      -0.565500
      2 S1         -23.4260   -16.0670   -34.4930 sy         1 A1A       1.126600
      3 O8         -22.9510   -16.4810   -33.1820 o          1 A1A      -0.565500
      4 C28        -25.1640   -15.7400   -34.3630 ca         1 A1A      -0.288500
      5 C33        -25.8900   -16.2800   -33.3110 ca         1 A1A      -0.002000
      6 C32        -27.2600   -16.0800   -33.2620 ca         1 A1A      -0.131500
      7 C31        -27.9160   -15.3540   -34.2520 ca         1 A1A      -0.048300
      8 C34        -29.4080   -15.1940   -34.2170 c3         1 A1A      -0.034100
      9 C35        -30.0820   -16.3740   -34.9030 c3         1 A1A       0.151600
     10 O10        -31.4730   -16.2020   -34.8460 os         1 A1A      -0.468000
     11 C36        -32.1700   -17.2560   -35.4590 c3         1 A1A       0.150900
     12 C30        -27.1640   -14.8220   -35.2990 ca         1 A1A      -0.131500
     13 C29        -25.7940   -15.0120   -35.3640 ca         1 A1A      -0.002000
     14 N3         -23.2960   -17.3390   -35.5390 nu         1 A1A      -0.872100
     15 C24        -24.0330   -18.5190   -35.2860 ca         1 A1A       0.243000
     16 C23        -23.7810   -19.2990   -34.1610 ca         1 A1A      -0.126000
     17 C22        -24.4810   -20.4700   -33.9340 ca         1 A1A      -0.109000
     18 C25        -25.0100   -18.9250   -36.2070 ca         1 A1A      -0.157600
     19 C27        -25.3290   -18.1370   -37.4740 c          1 A1A       0.721600
     20 O7         -24.5180   -17.2230   -37.7910 o          1 A1A      -0.701000
     21 O6         -26.3420   -18.4570   -38.1030 o          1 A1A      -0.701000
     22 C26        -25.6870   -20.1150   -35.9750 ca         1 A1A      -0.114000
     23 C21        -25.4340   -20.8990   -34.8560 ca         1 A1A      -0.071000
     24 N2         -26.1760   -22.0790   -34.6850 ns         1 A1A      -0.142000
     25 C20        -25.7260   -23.2450   -34.1570 c          1 A1A       0.604100
     26 O5         -24.6070   -23.3890   -33.6970 o          1 A1A      -0.588100
     27 C19        -26.7390   -24.3710   -34.1810 c3         1 A1A      -0.152400
     28 C18        -26.2900   -25.5490   -33.3320 c3         1 A1A      -0.145400
     29 C17        -26.0050   -25.1090   -31.9120 c          1 A1A       0.605100
     30 O4         -26.7380   -24.3320   -31.3270 o          1 A1A      -0.575100
     31 N1         -24.8930   -25.6540   -31.3530 ns         1 A1A      -0.132000
     32 C13        -24.3070   -25.2180   -30.1530 ca         1 A1A      -0.079000
     33 C12        -22.9280   -25.0290   -30.1180 ca         1 A1A      -0.141000
     34 C11        -22.3150   -24.5690   -28.9680 ca         1 A1A      -0.135000
     35 C14        -25.0500   -24.9770   -29.0050 ca         1 A1A      -0.062000
     36 C15        -24.4560   -24.4840   -27.8480 ca         1 A1A      -0.161600
     37 C16        -25.3370   -24.2360   -26.6260 c          1 A1A       0.719600
     38 O3         -26.5550   -24.3910   -26.7580 o          1 A1A      -0.696500
     39 O2         -24.7480   -23.9010   -25.5600 o          1 A1A      -0.696500
     40 C10        -23.0710   -24.2570   -27.8430 ca         1 A1A       0.252000
     41 N          -22.4660   -23.7080   -26.6880 nu         1 A1A      -0.882100
     42 S          -21.7240   -22.2330   -26.8320 sy         1 A1A       1.130600
     43 O          -21.6390   -21.7070   -25.4790 o          1 A1A      -0.573500
     44 O1         -20.5030   -22.3840   -27.6070 o          1 A1A      -0.573500
     45 C7         -22.8510   -21.2460   -27.7780 ca         1 A1A      -0.297500
     46 C6         -24.0530   -20.8550   -27.1960 ca         1 A1A      -0.007000
     47 C5         -24.9810   -20.1720   -27.9600 ca         1 A1A      -0.129000
     48 C8         -22.5770   -20.9570   -29.1050 ca         1 A1A      -0.007000
     49 C9         -23.5180   -20.2650   -29.8540 ca         1 A1A      -0.129000
     50 C4         -24.7310   -19.8700   -29.3000 ca         1 A1A      -0.024300
     51 C3         -25.7460   -19.1170   -30.1120 c3         1 A1A      -0.040100
     52 C2         -25.9310   -17.6710   -29.6470 c3         1 A1A      -0.068400
     53 C1         -24.6500   -16.8460   -29.6940 c3         1 A1A      -0.088400
     54 C          -24.9030   -15.3670   -29.4480 c3         1 A1A      -0.083100
     55 H28        -25.4010   -16.8490   -32.5330 ha         1 A1A       0.140000
     56 H27        -27.8260   -16.4960   -32.4370 ha         1 A1A       0.107500
     57 H29        -29.6990   -14.2680   -34.7170 hc         1 A1A       0.050200
     58 H30        -29.7520   -15.1330   -33.1820 hc         1 A1A       0.050200
     59 H31        -29.7820   -17.3100   -34.4090 h1         1 A1A       0.038200
     60 H32        -29.7370   -16.4430   -35.9460 h1         1 A1A       0.038200
     61 H35        -33.2360   -17.0500   -35.3750 h1         1 A1A       0.024033
     62 H33        -31.9190   -17.3530   -36.5220 h1         1 A1A       0.024033
     63 H34        -31.9650   -18.2200   -34.9770 h1         1 A1A       0.024033
     64 H26        -27.6580   -14.2500   -36.0750 ha         1 A1A       0.107500
     65 H25        -25.2300   -14.5890   -36.1840 ha         1 A1A       0.140000
     66 H36        -23.5440   -17.0440   -36.5220 hn         1 A1A       0.565000
     67 H23        -23.0260   -18.9970   -33.4500 ha         1 A1A       0.134000
     68 H22        -24.2710   -21.0390   -33.0410 ha         1 A1A       0.135000
     69 H24        -26.4300   -20.4360   -36.6940 ha         1 A1A       0.124000
     70 H21        -27.0810   -22.0980   -35.1310 hn         1 A1A       0.143000
     71 H20        -26.8800   -24.6970   -35.2160 hc         1 A1A       0.061200
     72 H19        -27.7100   -23.9990   -33.8480 hc         1 A1A       0.061200
     73 H18        -27.0930   -26.2910   -33.3040 hc         1 A1A       0.053200
     74 H17        -25.4280   -26.0430   -33.7810 hc         1 A1A       0.053200
     75 H16        -24.2870   -26.1680   -31.9740 hn         1 A1A       0.135000
     76 H14        -22.3300   -25.2350   -30.9970 ha         1 A1A       0.098000
     77 H13        -21.2420   -24.4380   -28.9560 ha         1 A1A       0.127000
     78 H15        -26.1130   -25.1630   -28.9950 ha         1 A1A       0.149000
     79 H39        -23.2190   -23.6890   -25.9480 hn         1 A1A       0.567000
     80 H10        -24.2740   -21.0890   -26.1640 ha         1 A1A       0.135500
     81 H9         -25.9190   -19.8760   -27.5070 ha         1 A1A       0.112500
     82 H11        -21.6460   -21.2650   -29.5600 ha         1 A1A       0.135500
     83 H12        -23.3030   -20.0350   -30.8910 ha         1 A1A       0.112500
     84 H7         -25.4460   -19.1220   -31.1630 hc         1 A1A       0.053700
     85 H8         -26.7080   -19.6350   -30.0590 hc         1 A1A       0.053700
     86 H6         -26.6900   -17.2040   -30.2830 hc         1 A1A       0.028700
     87 H5         -26.3400   -17.6570   -28.6320 hc         1 A1A       0.028700
     88 H3         -23.9410   -17.2270   -28.9540 hc         1 A1A       0.057200
     89 H4         -24.1650   -16.9790   -30.6660 hc         1 A1A       0.057200
     90 H2         -23.9770   -14.7920   -29.4670 hc         1 A1A       0.023033
     91 H          -25.5660   -14.9500   -30.2090 hc         1 A1A       0.023033
     92 H1         -25.3730   -15.2010   -28.4770 hc         1 A1A       0.023033
@<TRIPOS>BOND
     1     1     2 2   
     2     2     3 2   
     3     2     4 1   
     4     2    14 1   
     5     4     5 ar  
     6     4    13 ar  
     7     5     6 ar  
     8     5    55 1   
     9     6     7 ar  
    10     6    56 1   
    11     7     8 1   
    12     7    12 ar  
    13     8     9 1   
    14     8    57 1   
    15     8    58 1   
    16     9    10 1   
    17     9    59 1   
    18     9    60 1   
    19    10    11 1   
    20    11    61 1   
    21    11    62 1   
    22    11    63 1   
    23    12    13 ar  
    24    12    64 1   
    25    13    65 1   
    26    14    15 1   
    27    14    66 1   
    28    15    16 ar  
    29    15    18 ar  
    30    16    17 ar  
    31    16    67 1   
    32    17    23 ar  
    33    17    68 1   
    34    18    19 1   
    35    18    22 ar  
    36    19    20 1   
    37    19    21 1   
    38    22    23 ar  
    39    22    69 1   
    40    23    24 1   
    41    24    25 1   
    42    24    70 1   
    43    25    26 2   
    44    25    27 1   
    45    27    28 1   
    46    27    71 1   
    47    27    72 1   
    48    28    29 1   
    49    28    73 1   
    50    28    74 1   
    51    29    30 2   
    52    29    31 1   
    53    31    32 1   
    54    31    75 1   
    55    32    33 ar  
    56    32    35 ar  
    57    33    34 ar  
    58    33    76 1   
    59    34    40 ar  
    60    34    77 1   
    61    35    36 ar  
    62    35    78 1   
    63    36    37 1   
    64    36    40 ar  
    65    37    38 1   
    66    37    39 1   
    67    40    41 1   
    68    41    42 1   
    69    41    79 1   
    70    42    43 2   
    71    42    44 2   
    72    42    45 1   
    73    45    46 ar  
    74    45    48 ar  
    75    46    47 ar  
    76    46    80 1   
    77    47    50 ar  
    78    47    81 1   
    79    48    49 ar  
    80    48    82 1   
    81    49    50 ar  
    82    49    83 1   
    83    50    51 1   
    84    51    52 1   
    85    51    84 1   
    86    51    85 1   
    87    52    53 1   
    88    52    86 1   
    89    52    87 1   
    90    53    54 1   
    91    53    88 1   
    92    53    89 1   
    93    54    90 1   
    94    54    91 1   
    95    54    92 1   
@<TRIPOS>SUBSTRUCTURE
     1 A1A         1 TEMP              0 ****  ****    0 ROOT
