@<TRIPOS>MOLECULE
A1A
   94    97     1     0     0
SMALL
abcg2


@<TRIPOS>ATOM
      1 C23         -3.7930   -46.7320   -21.3250 ca         1 A1A      -0.131000
      2 C17         -1.0900   -43.2590   -20.9920 c          1 A1A       0.600100
      3 C20         -3.0770   -46.7720   -23.6340 ca         1 A1A      -0.153600
      4 C12          3.1020   -37.8920   -21.6740 ca         1 A1A      -0.118500
      5 C14          0.9600   -40.0060   -21.1450 c          1 A1A       0.600100
      6 C11          4.0260   -36.9450   -22.0830 ca         1 A1A      -0.131000
      7 C18         -1.9950   -45.3030   -22.0290 ca         1 A1A      -0.070500
      8 C19         -2.1350   -45.8020   -23.3170 ca         1 A1A      -0.112000
      9 C21         -3.1760   -47.2500   -25.0800 c          1 A1A       0.720600
     10 C10          3.8780   -36.2600   -23.2830 ca         1 A1A       0.243000
     11 C22         -2.8330   -45.7820   -21.0250 ca         1 A1A      -0.118500
     12 C24         -3.9210   -47.2400   -22.6150 ca         1 A1A       0.243000
     13 O9           5.4750   -34.2750   -21.4680 o          1 A1A      -0.569500
     14 S            4.9950   -33.9170   -22.7930 sy         1 A1A       1.124100
     15 O            5.7900   -33.0190   -23.6160 o          1 A1A      -0.569500
     16 C            3.3550   -33.2700   -22.6220 ca         1 A1A      -0.291000
     17 C9           2.5910   -33.6110   -21.5130 ca         1 A1A      -0.002500
     18 C8           1.2680   -33.2040   -21.4510 ca         1 A1A      -0.133500
     19 C3           0.6930   -32.4610   -22.4800 ca         1 A1A      -0.040300
     20 C4          -0.7350   -32.0090   -22.3900 c3         1 A1A      -0.035600
     21 C5          -0.8710   -30.6940   -21.6150 c3         1 A1A      -0.073400
     22 C6          -2.2990   -30.1580   -21.5670 c3         1 A1A      -0.073900
     23 C7          -3.2800   -31.0610   -20.8320 c3         1 A1A      -0.089100
     24 C2           1.4860   -32.1180   -23.5740 ca         1 A1A      -0.133500
     25 C1           2.8080   -32.5240   -23.6580 ca         1 A1A      -0.002500
     26 N            4.8240   -35.2920   -23.6980 nu         1 A1A      -0.872600
     27 C36          2.7870   -36.5520   -24.1150 ca         1 A1A      -0.153600
     28 C37          2.5760   -35.8850   -25.4730 c          1 A1A       0.720600
     29 O8           1.5260   -36.1310   -26.0720 o          1 A1A      -0.693000
     30 O7           3.5060   -35.1380   -25.8870 o          1 A1A      -0.693000
     31 C35          1.8770   -37.5130   -23.6980 ca         1 A1A      -0.112000
     32 C13          2.0080   -38.1870   -22.4860 ca         1 A1A      -0.070500
     33 N1           1.0180   -39.1270   -22.1760 ns         1 A1A      -0.140000
     34 O6           1.8040   -40.0910   -20.2710 o          1 A1A      -0.602100
     35 C15         -0.2650   -40.8970   -21.1560 c3         1 A1A      -0.153400
     36 C16          0.1300   -42.3630   -21.0000 c3         1 A1A      -0.153400
     37 O5          -2.0680   -43.0110   -20.3100 o          1 A1A      -0.602100
     38 N2          -0.9910   -44.3480   -21.7930 ns         1 A1A      -0.140000
     39 O2          -2.3220   -46.8460   -25.8730 o          1 A1A      -0.693000
     40 O1          -4.1410   -48.0160   -25.3590 o          1 A1A      -0.693000
     41 N3          -4.8990   -48.2060   -22.9360 nu         1 A1A      -0.872600
     42 S1          -4.8860   -49.6650   -22.1610 sy         1 A1A       1.124100
     43 O3          -5.2380   -49.4750   -20.7620 o          1 A1A      -0.569500
     44 O4          -5.7110   -50.5380   -22.9830 o          1 A1A      -0.569500
     45 C25         -3.2020   -50.2120   -22.2220 ca         1 A1A      -0.291000
     46 C34         -2.6640   -50.6000   -23.4430 ca         1 A1A      -0.002500
     47 C33         -1.3270   -50.9540   -23.5100 ca         1 A1A      -0.133500
     48 C28         -0.5140   -50.9190   -22.3770 ca         1 A1A      -0.040300
     49 C27         -1.0800   -50.5300   -21.1660 ca         1 A1A      -0.133500
     50 C26         -2.4160   -50.1720   -21.0790 ca         1 A1A      -0.002500
     51 C29          0.9280   -51.3300   -22.4470 c3         1 A1A      -0.035600
     52 C30          1.1140   -52.8090   -22.0990 c3         1 A1A      -0.073400
     53 C31          2.5630   -53.2810   -22.1850 c3         1 A1A      -0.073900
     54 C32          3.4890   -52.6300   -21.1660 c3         1 A1A      -0.089100
     55 H1          -4.4500   -47.0760   -20.5400 ha         1 A1A       0.128500
     56 H2           3.2520   -38.3950   -20.7330 ha         1 A1A       0.126500
     57 H3           4.8790   -36.7490   -21.4500 ha         1 A1A       0.128500
     58 H4          -1.4900   -45.4310   -24.1050 ha         1 A1A       0.132500
     59 H5          -2.7450   -45.4260   -20.0100 ha         1 A1A       0.126500
     60 H6           3.0130   -34.1910   -20.7030 ha         1 A1A       0.138250
     61 H7           0.6710   -33.4790   -20.5900 ha         1 A1A       0.105750
     62 H8          -1.3290   -32.7880   -21.9060 hc         1 A1A       0.048450
     63 H9          -1.1460   -31.8770   -23.3950 hc         1 A1A       0.048450
     64 H10         -0.2220   -29.9450   -22.0770 hc         1 A1A       0.040450
     65 H11         -0.4980   -30.8350   -20.5950 hc         1 A1A       0.040450
     66 H12         -2.2830   -29.1790   -21.0820 hc         1 A1A       0.031700
     67 H13         -2.6530   -29.9840   -22.5880 hc         1 A1A       0.031700
     68 H14         -4.2580   -30.5870   -20.7450 hc         1 A1A       0.029700
     69 H15         -3.4280   -32.0130   -21.3440 hc         1 A1A       0.029700
     70 H16         -2.9300   -31.2820   -19.8220 hc         1 A1A       0.029700
     71 H17          1.0600   -31.5350   -24.3810 ha         1 A1A       0.105750
     72 H18          3.3980   -32.2550   -24.5240 ha         1 A1A       0.138250
     73 H19          4.5640   -35.0480   -24.6920 hn         1 A1A       0.569000
     74 H21          1.0370   -37.7360   -24.3460 ha         1 A1A       0.132500
     75 H22          0.2640   -39.1800   -22.8430 hn         1 A1A       0.150500
     76 H23         -0.8510   -40.7640   -22.0670 hc         1 A1A       0.069700
     77 H24         -0.9050   -40.5960   -20.3240 hc         1 A1A       0.069700
     78 H25          0.8280   -42.6480   -21.7900 hc         1 A1A       0.069700
     79 H26          0.6550   -42.5060   -20.0520 hc         1 A1A       0.069700
     80 H27         -0.1890   -44.3960   -22.4030 hn         1 A1A       0.150500
     81 H29         -4.8550   -48.3250   -23.9880 hn         1 A1A       0.569000
     82 H30         -3.2700   -50.6210   -24.3400 ha         1 A1A       0.138250
     83 H31         -0.9050   -51.2520   -24.4620 ha         1 A1A       0.105750
     84 H32         -0.4640   -50.4960   -20.2740 ha         1 A1A       0.105750
     85 H33         -2.8320   -49.8640   -20.1300 ha         1 A1A       0.138250
     86 H34          1.5120   -50.7110   -21.7620 hc         1 A1A       0.048450
     87 H35          1.3180   -51.1450   -23.4520 hc         1 A1A       0.048450
     88 H36          0.4990   -53.4090   -22.7750 hc         1 A1A       0.040450
     89 H37          0.7310   -52.9920   -21.0900 hc         1 A1A       0.040450
     90 H38          2.5830   -54.3650   -22.0430 hc         1 A1A       0.031700
     91 H39          2.9420   -53.1020   -23.1960 hc         1 A1A       0.031700
     92 H40          4.4920   -53.0550   -21.2190 hc         1 A1A       0.029700
     93 H41          3.5860   -51.5550   -21.3260 hc         1 A1A       0.029700
     94 H42          3.1210   -52.7800   -20.1490 hc         1 A1A       0.029700
@<TRIPOS>BOND
     1     1    11 ar  
     2     1    12 ar  
     3     1    55 1   
     4     2    36 1   
     5     2    37 2   
     6     2    38 1   
     7     3     8 ar  
     8     3     9 1   
     9     3    12 ar  
    10     4     6 ar  
    11     4    32 ar  
    12     4    56 1   
    13     5    33 1   
    14     5    34 2   
    15     5    35 1   
    16     6    10 ar  
    17     6    57 1   
    18     7     8 ar  
    19     7    11 ar  
    20     7    38 1   
    21     8    58 1   
    22     9    39 1   
    23     9    40 1   
    24    10    26 1   
    25    10    27 ar  
    26    11    59 1   
    27    12    41 1   
    28    13    14 2   
    29    14    15 2   
    30    14    16 1   
    31    14    26 1   
    32    16    17 ar  
    33    16    25 ar  
    34    17    18 ar  
    35    17    60 1   
    36    18    19 ar  
    37    18    61 1   
    38    19    20 1   
    39    19    24 ar  
    40    20    21 1   
    41    20    62 1   
    42    20    63 1   
    43    21    22 1   
    44    21    64 1   
    45    21    65 1   
    46    22    23 1   
    47    22    66 1   
    48    22    67 1   
    49    23    68 1   
    50    23    69 1   
    51    23    70 1   
    52    24    25 ar  
    53    24    71 1   
    54    25    72 1   
    55    26    73 1   
    56    27    28 1   
    57    27    31 ar  
    58    28    29 1   
    59    28    30 1   
    60    31    32 ar  
    61    31    74 1   
    62    32    33 1   
    63    33    75 1   
    64    35    36 1   
    65    35    76 1   
    66    35    77 1   
    67    36    78 1   
    68    36    79 1   
    69    38    80 1   
    70    41    42 1   
    71    41    81 1   
    72    42    43 2   
    73    42    44 2   
    74    42    45 1   
    75    45    46 ar  
    76    45    50 ar  
    77    46    47 ar  
    78    46    82 1   
    79    47    48 ar  
    80    47    83 1   
    81    48    49 ar  
    82    48    51 1   
    83    49    50 ar  
    84    49    84 1   
    85    50    85 1   
    86    51    52 1   
    87    51    86 1   
    88    51    87 1   
    89    52    53 1   
    90    52    88 1   
    91    52    89 1   
    92    53    54 1   
    93    53    90 1   
    94    53    91 1   
    95    54    92 1   
    96    54    93 1   
    97    54    94 1   
@<TRIPOS>SUBSTRUCTURE
     1 A1A         1 TEMP              0 ****  ****    0 ROOT
