@<TRIPOS>MOLECULE
A1A
   52    55     1     0     0
SMALL
abcg2


@<TRIPOS>ATOM
      1 C1          -4.8250     1.6560    22.1720 ca         1 A1A      -0.155900
      2 N1          -4.5020     3.5990    23.5760 n2         1 A1A      -0.627900
      3 O1          -3.4900    -2.6750    19.6740 o          1 A1A      -0.568100
      4 C2          -5.1500     0.3020    22.1510 ca         1 A1A      -0.054500
      5 N2          -6.0200     2.0940    24.2910 nu         1 A1A      -0.891400
      6 C3          -4.8760    -0.4870    21.0460 ca         1 A1A      -0.148500
      7 C4          -4.2630     0.0730    19.9280 ca         1 A1A      -0.010000
      8 N4          -3.1320    -5.6080    13.3700 n2         1 A1A      -0.615900
      9 C5          -3.9380     1.4310    19.9410 ca         1 A1A      -0.148500
     10 N5          -3.0700    -3.6170    12.3000 nh         1 A1A      -0.756600
     11 C6          -4.2140     2.2090    21.0480 ca         1 A1A      -0.054500
     12 N6          -0.4680    -0.9220    12.3340 n8         1 A1A      -0.997200
     13 C7          -3.6610    -1.9720    18.6950 c          1 A1A       0.618700
     14 C8          -3.2340    -3.6680    14.7830 ca         1 A1A      -0.099900
     15 C9          -4.1090    -2.6040    14.9800 ca         1 A1A      -0.088000
     16 C10         -4.2430    -2.0310    16.2350 ca         1 A1A      -0.077000
     17 C11         -3.5060    -2.5150    17.3130 ca         1 A1A      -0.146600
     18 C12         -2.6440    -3.5920    17.1180 ca         1 A1A      -0.077000
     19 C13         -2.5050    -4.1590    15.8640 ca         1 A1A      -0.088000
     20 C14         -5.1040     2.4970    23.3450 ce         1 A1A       0.621800
     21 C15         -5.0270     4.1080    24.8370 c5         1 A1A       0.086800
     22 C16         -6.2680     3.2500    25.1440 c5         1 A1A       0.151800
     23 C17         -3.1210    -4.3350    13.4700 ce         1 A1A       0.621800
     24 C18         -3.0910    -5.9190    11.9460 c5         1 A1A       0.083800
     25 C19         -2.8280    -4.5820    11.2300 c5         1 A1A       0.159800
     26 C21         -0.9810    -2.2660    12.5430 c3         1 A1A       0.114800
     27 H2          -5.6180    -0.1630    23.0090 ha         1 A1A       0.128500
     28 H24         -6.8230     1.5690    23.9790 hn         1 A1A       0.466000
     29 H4          -5.1570    -1.5290    21.0650 ha         1 A1A       0.127500
     30 H26         -3.9020    -0.1110    17.9200 hn         1 A1A       0.157000
     31 H3          -3.4650     1.8790    19.0750 ha         1 A1A       0.127500
     32 H1          -3.9550     3.2590    21.0400 ha         1 A1A       0.128500
     33 H21          0.4770    -0.8600    12.6890 hn         1 A1A       0.396500
     34 H22         -0.4020    -0.7370    11.3410 hn         1 A1A       0.396500
     35 H8          -4.7170    -2.2370    14.1640 ha         1 A1A       0.131000
     36 H6          -4.9560    -1.2270    16.3650 ha         1 A1A       0.128000
     37 H5          -2.0750    -3.9860    17.9490 ha         1 A1A       0.128000
     38 H7          -1.8250    -4.9870    15.7200 ha         1 A1A       0.131000
     39 H12         -4.2680     3.9970    25.6190 h1         1 A1A       0.063200
     40 H11         -5.2560     5.1720    24.7700 h1         1 A1A       0.063200
     41 H10         -6.3450     2.9700    26.1940 h1         1 A1A       0.046700
     42 H9          -7.1940     3.7580    24.8590 h1         1 A1A       0.046700
     43 H14         -4.0480    -6.3530    11.6440 h1         1 A1A       0.066200
     44 H13         -2.3270    -6.6680    11.7310 h1         1 A1A       0.066200
     45 H15         -1.7990    -4.5100    10.8640 h1         1 A1A       0.048200
     46 H16         -3.4950    -4.4090    10.3850 h1         1 A1A       0.048200
     47 H17         -2.6150    -1.9620    11.1680 h1         1 A1A       0.062700
     48 H18         -2.9980    -1.5900    12.8270 h1         1 A1A       0.062700
     49 H20         -0.8600    -2.5210    13.5990 h1         1 A1A       0.035200
     50 H19         -0.4490    -3.0400    11.9730 h1         1 A1A       0.035200
     51 N3          -3.9970    -0.6560    18.7650 ns         1 A1A      -0.151000
     52 C20         -2.4670    -2.3020    12.1950 c3         1 A1A       0.210800
@<TRIPOS>BOND
     1     1     4 ar  
     2     1    11 ar  
     3     1    20 1   
     4     2    20 2   
     5     2    21 1   
     6     3    13 2   
     7     4     6 ar  
     8     4    27 1   
     9     5    20 1   
    10     5    22 1   
    11     5    28 1   
    12     6     7 ar  
    13     6    29 1   
    14     7     9 ar  
    15     7    51 1   
    16     8    23 2   
    17     8    24 1   
    18     9    11 ar  
    19     9    31 1   
    20    10    23 1   
    21    10    25 1   
    22    10    52 1   
    23    11    32 1   
    24    12    26 1   
    25    12    33 1   
    26    12    34 1   
    27    13    17 1   
    28    13    51 1   
    29    14    15 ar  
    30    14    19 ar  
    31    14    23 1   
    32    15    16 ar  
    33    15    35 1   
    34    16    17 ar  
    35    16    36 1   
    36    17    18 ar  
    37    18    19 ar  
    38    18    37 1   
    39    19    38 1   
    40    21    22 1   
    41    21    39 1   
    42    21    40 1   
    43    22    41 1   
    44    22    42 1   
    45    24    25 1   
    46    24    43 1   
    47    24    44 1   
    48    25    45 1   
    49    25    46 1   
    50    26    49 1   
    51    26    50 1   
    52    26    52 1   
    53    30    51 1   
    54    47    52 1   
    55    48    52 1   
@<TRIPOS>SUBSTRUCTURE
     1 A1A         1 TEMP              0 ****  ****    0 ROOT
