@<TRIPOS>MOLECULE
A1A
  139   141     1     0     0
SMALL
abcg2


@<TRIPOS>ATOM
      1 C19         52.9720     5.6390   -64.3480 c6         1 A1A       0.410000
      2 C20         51.9750     7.2390   -62.8480 c6         1 A1A       0.198300
      3 C21         53.3000     8.0010   -62.6740 c6         1 A1A      -0.255700
      4 C22         54.0570     7.8850   -63.9950 c6         1 A1A       0.197300
      5 C23         54.2860     6.4240   -64.3270 c6         1 A1A      -0.093400
      6 C24         53.2880     4.1420   -64.3950 c3         1 A1A      -0.098400
      7 C25         51.0610     7.2200   -61.6260 c3         1 A1A      -0.108400
      8 C26         52.1050     3.1800   -64.3580 c3         1 A1A       0.188300
      9 C27         49.5660     7.3320   -61.9490 c3         1 A1A       0.198500
     10 C28         53.1280     9.4830   -62.2520 c          1 A1A       0.720000
     11 C29         52.5910     1.7380   -64.5390 c3         1 A1A       0.140300
     12 C30         49.4320     9.7180   -62.0520 c6         1 A1A       0.379300
     13 C31         49.6680    10.8170   -63.0740 c6         1 A1A       0.151300
     14 C32         51.4810     0.6910   -64.5370 c3         1 A1A      -0.112400
     15 C33         49.7940    12.1530   -62.3340 c6         1 A1A       0.122500
     16 C34         48.6050    12.3580   -61.4010 c6         1 A1A       0.130300
     17 C35         48.4140    11.1350   -60.4940 c6         1 A1A       0.154300
     18 C36         49.0610     6.1870   -62.7680 c2         1 A1A      -0.115200
     19 C37         50.7660     0.5170   -63.2030 c3         1 A1A      -0.104400
     20 C38         49.7300    -0.6100   -63.2070 c3         1 A1A       0.175300
     21 C39         47.1850    11.2460   -59.6160 c3         1 A1A      -0.087100
     22 C40         50.3360    -1.9900   -63.4240 c3         1 A1A      -0.118400
     23 C41         48.2160     5.2680   -62.2910 ce         1 A1A      -0.244000
     24 C42         49.3250    -3.1390   -63.4360 c3         1 A1A       0.184300
     25 C43         50.0660    -4.4680   -63.5300 c3         1 A1A      -0.078400
     26 C44         49.1970    -5.6840   -63.8220 c3         1 A1A       0.190300
     27 C45         47.7410     4.1230   -63.0350 ce         1 A1A      -0.116000
     28 C46         48.1260    -5.9090   -62.7540 c3         1 A1A      -0.168400
     29 C47         45.6000    -9.2680   -60.7640 c3         1 A1A      -0.095700
     30 C48         44.3050   -10.1000   -60.8200 c3         1 A1A       0.183300
     31 C49         46.2790    -9.0810   -62.1260 c3         1 A1A       0.189300
     32 C50         43.2450    -9.5500   -61.7920 c3         1 A1A      -0.024500
     33 C51         46.9790     3.1580   -62.4860 cf         1 A1A      -0.236000
     34 C52         47.3000    -7.1310   -63.0630 c          1 A1A       0.599100
     35 C53         46.5470    -9.7820   -59.6810 c3         1 A1A      -0.088100
     36 C54         47.1590   -10.2260   -62.5900 c3         1 A1A      -0.113100
     37 C55         41.9070   -10.2670   -61.5980 c3         1 A1A      -0.079100
     38 C56         43.0810    -8.0760   -61.5930 c2         1 A1A      -0.227200
     39 C57         46.5400     1.9710   -63.1750 cf         1 A1A      -0.161000
     40 C58         43.3060    -7.1430   -62.5220 ce         1 A1A      -0.168000
     41 C59         45.9660     0.9260   -62.5450 ce         1 A1A      -0.207000
     42 C60         43.2420    -5.7150   -62.2620 ce         1 A1A      -0.200000
     43 C61         45.6510    -0.3400   -63.1660 ce         1 A1A      -0.182000
     44 C62         43.5630    -4.7730   -63.1540 c2         1 A1A      -0.193200
     45 C63         43.6300    -3.3130   -62.8460 c3         1 A1A      -0.042200
     46 C64         45.0630    -2.7810   -63.0190 c3         1 A1A      -0.041200
     47 C65         45.2580    -1.4120   -62.4660 c2         1 A1A      -0.215200
     48 N18         49.8300    13.2100   -63.3340 n8         1 A1A      -1.028200
     49 O01         52.2420     5.8750   -63.1690 os         1 A1A      -0.523000
     50 O02         52.2480     6.0440   -65.4750 oh         1 A1A      -0.676000
     51 O03         55.3120     8.5310   -63.9560 oh         1 A1A      -0.694000
     52 O04         49.2730     8.5110   -62.7030 os         1 A1A      -0.424000
     53 O05         48.2790     9.9710   -61.2870 os         1 A1A      -0.486000
     54 O06         51.1740     3.5540   -65.3670 oh         1 A1A      -0.657000
     55 O07         53.2420    10.3430   -63.1560 o          1 A1A      -0.737000
     56 O08         53.3100     1.6770   -65.7550 oh         1 A1A      -0.640000
     57 O09         52.9080     9.7130   -61.0480 o          1 A1A      -0.737000
     58 O10         48.6210    10.8680   -64.0060 oh         1 A1A      -0.713000
     59 O11         48.8530    13.5250   -60.6480 oh         1 A1A      -0.726000
     60 O12         48.7660    -0.3940   -64.2330 oh         1 A1A      -0.685000
     61 O13         48.4340    -3.0500   -64.5290 oh         1 A1A      -0.680000
     62 O14         50.0650    -6.8030   -63.8930 oh         1 A1A      -0.673000
     63 O15         47.0850    -7.8830   -61.9960 os         1 A1A      -0.453100
     64 O16         44.5210   -11.4520   -61.1620 oh         1 A1A      -0.662000
     65 O17         46.8740    -7.3810   -64.1660 o          1 A1A      -0.510000
     66 H1          51.4390     7.7100   -63.6830 h1         1 A1A       0.061700
     67 H2          53.8730     7.4930   -61.8870 hc         1 A1A       0.052700
     68 H3          53.4330     8.3310   -64.7810 h1         1 A1A       0.052700
     69 H4          54.7860     6.3180   -65.2930 hc         1 A1A       0.048200
     70 H5          54.9450     5.9850   -63.5710 hc         1 A1A       0.048200
     71 H6          53.8810     3.9710   -65.2960 hc         1 A1A       0.064700
     72 H7          53.9390     3.8930   -63.5530 hc         1 A1A       0.064700
     73 H8          51.2150     6.2930   -61.0670 hc         1 A1A       0.074700
     74 H9          51.3410     8.0200   -60.9410 hc         1 A1A       0.074700
     75 H10         51.6310     3.2460   -63.3710 h1         1 A1A       0.048700
     76 H11         49.0180     7.3480   -60.9990 h1         1 A1A       0.039700
     77 H12         53.2570     1.5320   -63.6850 h1         1 A1A       0.027700
     78 H13         50.3090     9.7110   -61.3850 h2         1 A1A       0.072700
     79 H14         50.6310    10.6080   -63.5640 h1         1 A1A       0.097700
     80 H15         50.7610     0.9100   -65.3290 hc         1 A1A       0.051700
     81 H16         51.9470    -0.2600   -64.8130 hc         1 A1A       0.051700
     82 H17         50.7050    12.1100   -61.7170 h1         1 A1A       0.080700
     83 H18         47.6990    12.4730   -62.0140 h1         1 A1A       0.050700
     84 H19         49.3080    11.0450   -59.8530 h1         1 A1A       0.053700
     85 H20         49.4320     6.1030   -63.7860 ha         1 A1A       0.191000
     86 H21         51.4930     0.3200   -62.4090 hc         1 A1A       0.048700
     87 H22         50.2560     1.4440   -62.9170 hc         1 A1A       0.048700
     88 H23         49.2290    -0.6140   -62.2290 h1         1 A1A       0.034700
     89 H24         47.2680    12.0950   -58.9390 hc         1 A1A       0.036367
     90 H25         46.2820    11.3740   -60.2160 hc         1 A1A       0.036367
     91 H26         47.0660    10.3520   -59.0030 hc         1 A1A       0.036367
     92 H27         51.0570    -2.1660   -62.6210 hc         1 A1A       0.058200
     93 H28         50.9020    -2.0200   -64.3610 hc         1 A1A       0.058200
     94 H29         47.8610     5.3610   -61.2670 ha         1 A1A       0.170000
     95 H30         48.7640    -3.1110   -62.4870 h1         1 A1A       0.022700
     96 H31         50.6120    -4.6260   -62.5940 hc         1 A1A       0.055200
     97 H32         50.8170    -4.3980   -64.3240 hc         1 A1A       0.055200
     98 H33         48.6990    -5.5330   -64.7850 h1         1 A1A       0.069700
     99 H34         48.0420     4.0400   -64.0760 ha         1 A1A       0.165000
    100 H35         48.5810    -5.9830   -61.7650 hc         1 A1A       0.080200
    101 H36         47.4410    -5.0550   -62.7310 hc         1 A1A       0.080200
    102 H37         45.2740    -8.2700   -60.4540 hc         1 A1A       0.070700
    103 H38         43.8710   -10.0340   -59.8080 h1         1 A1A       0.026700
    104 H39         45.5190    -8.8890   -62.8840 h1         1 A1A       0.068700
    105 H40         43.5840    -9.7300   -62.8190 hc         1 A1A       0.065700
    106 H41         46.7060     3.2430   -61.4360 ha         1 A1A       0.173000
    107 H42         46.0490    -9.7750   -58.7100 hc         1 A1A       0.036700
    108 H43         46.8960   -10.7990   -59.8660 hc         1 A1A       0.036700
    109 H44         47.4310    -9.1500   -59.5970 hc         1 A1A       0.036700
    110 H45         46.5750   -11.1430   -62.6430 hc         1 A1A       0.048700
    111 H46         47.5630   -10.0300   -63.5830 hc         1 A1A       0.048700
    112 H47         47.9950   -10.3960   -61.9110 hc         1 A1A       0.048700
    113 H48         41.9990   -11.3400   -61.7580 hc         1 A1A       0.037367
    114 H49         41.5240   -10.1070   -60.5880 hc         1 A1A       0.037367
    115 H50         41.1630    -9.8880   -62.3000 hc         1 A1A       0.037367
    116 H51         42.7750    -7.7610   -60.5960 ha         1 A1A       0.166000
    117 H52         46.7190     1.9210   -64.2480 ha         1 A1A       0.167000
    118 H53         43.6140    -7.4470   -63.5200 ha         1 A1A       0.178000
    119 H54         45.7890     1.0000   -61.4740 ha         1 A1A       0.171000
    120 H55         42.9570    -5.4150   -61.2560 ha         1 A1A       0.166000
    121 H56         45.8040    -0.4280   -64.2380 ha         1 A1A       0.174000
    122 H57         43.8550    -5.0730   -64.1580 ha         1 A1A       0.177000
    123 H58         43.2890    -3.1340   -61.8230 hc         1 A1A       0.048200
    124 H59         42.9650    -2.7460   -63.5050 hc         1 A1A       0.048200
    125 H60         45.7430    -3.4590   -62.4900 hc         1 A1A       0.050700
    126 H61         45.3470    -2.8160   -64.0740 hc         1 A1A       0.050700
    127 H62         45.1050    -1.3060   -61.3940 ha         1 A1A       0.164000
    128 H63         49.7120    14.1130   -62.8920 hn         1 A1A       0.410500
    129 H64         50.7380    13.2300   -63.7810 hn         1 A1A       0.410500
    130 H66         51.5830     5.3570   -65.6400 ho         1 A1A       0.463000
    131 H67         55.1050     9.4660   -63.8240 ho         1 A1A       0.479000
    132 H68         50.2950     3.2540   -65.1140 ho         1 A1A       0.438000
    133 H69         53.6870     0.7960   -65.8380 ho         1 A1A       0.432000
    134 H71         48.6210    11.7860   -64.3180 ho         1 A1A       0.515000
    135 H72         48.0160    13.8710   -60.3240 ho         1 A1A       0.494000
    136 H73         48.2370     0.3730   -63.9940 ho         1 A1A       0.458000
    137 H74         48.1800    -2.1180   -64.6000 ho         1 A1A       0.476000
    138 H75         49.6700    -7.4640   -64.4680 ho         1 A1A       0.449000
    139 H76         45.0070   -11.8800   -60.4510 ho         1 A1A       0.443000
@<TRIPOS>BOND
     1     1     5 1   
     2     1     6 1   
     3     1    49 1   
     4     1    50 1   
     5     2     3 1   
     6     2     7 1   
     7     2    49 1   
     8     2    66 1   
     9     3     4 1   
    10     3    10 1   
    11     3    67 1   
    12     4     5 1   
    13     4    51 1   
    14     4    68 1   
    15     5    69 1   
    16     5    70 1   
    17     6     8 1   
    18     6    71 1   
    19     6    72 1   
    20     7     9 1   
    21     7    73 1   
    22     7    74 1   
    23     8    11 1   
    24     8    54 1   
    25     8    75 1   
    26     9    18 1   
    27     9    52 1   
    28     9    76 1   
    29    10    55 1   
    30    10    57 1   
    31    11    14 1   
    32    11    56 1   
    33    11    77 1   
    34    12    13 1   
    35    12    52 1   
    36    12    53 1   
    37    12    78 1   
    38    13    15 1   
    39    13    58 1   
    40    13    79 1   
    41    14    19 1   
    42    14    80 1   
    43    14    81 1   
    44    15    16 1   
    45    15    48 1   
    46    15    82 1   
    47    16    17 1   
    48    16    59 1   
    49    16    83 1   
    50    17    21 1   
    51    17    53 1   
    52    17    84 1   
    53    18    23 2   
    54    18    85 1   
    55    19    20 1   
    56    19    86 1   
    57    19    87 1   
    58    20    22 1   
    59    20    60 1   
    60    20    88 1   
    61    21    89 1   
    62    21    90 1   
    63    21    91 1   
    64    22    24 1   
    65    22    92 1   
    66    22    93 1   
    67    23    27 1   
    68    23    94 1   
    69    24    25 1   
    70    24    61 1   
    71    24    95 1   
    72    25    26 1   
    73    25    96 1   
    74    25    97 1   
    75    26    28 1   
    76    26    62 1   
    77    26    98 1   
    78    27    33 2   
    79    27    99 1   
    80    28    34 1   
    81    28   100 1   
    82    28   101 1   
    83    29    30 1   
    84    29    31 1   
    85    29    35 1   
    86    29   102 1   
    87    30    32 1   
    88    30    64 1   
    89    30   103 1   
    90    31    36 1   
    91    31    63 1   
    92    31   104 1   
    93    32    37 1   
    94    32    38 1   
    95    32   105 1   
    96    33    39 1   
    97    33   106 1   
    98    34    63 1   
    99    34    65 2   
   100    35   107 1   
   101    35   108 1   
   102    35   109 1   
   103    36   110 1   
   104    36   111 1   
   105    36   112 1   
   106    37   113 1   
   107    37   114 1   
   108    37   115 1   
   109    38    40 2   
   110    38   116 1   
   111    39    41 2   
   112    39   117 1   
   113    40    42 1   
   114    40   118 1   
   115    41    43 1   
   116    41   119 1   
   117    42    44 2   
   118    42   120 1   
   119    43    47 2   
   120    43   121 1   
   121    44    45 1   
   122    44   122 1   
   123    45    46 1   
   124    45   123 1   
   125    45   124 1   
   126    46    47 1   
   127    46   125 1   
   128    46   126 1   
   129    47   127 1   
   130    48   128 1   
   131    48   129 1   
   132    50   130 1   
   133    51   131 1   
   134    54   132 1   
   135    56   133 1   
   136    58   134 1   
   137    59   135 1   
   138    60   136 1   
   139    61   137 1   
   140    62   138 1   
   141    64   139 1   
@<TRIPOS>SUBSTRUCTURE
     1 A1A         1 TEMP              0 ****  ****    0 ROOT
