@<TRIPOS>MOLECULE
A1A
   39    40     1     0     0
SMALL
abcg2


@<TRIPOS>ATOM
      1 C1          -3.4460    -0.4340    19.3380 ca         1 A1A      -0.151500
      2 C10         -1.6860    -4.8800    14.4270 ca         1 A1A      -0.013000
      3 C11         -0.8080    -5.5720    13.6180 ca         1 A1A      -0.194000
      4 C12          0.4760    -5.0640    13.3780 ca         1 A1A       0.350000
      5 C13          0.8440    -3.8600    13.9930 ca         1 A1A      -0.194000
      6 C14         -0.0390    -3.1790    14.8030 ca         1 A1A      -0.013000
      7 C15          1.1810    -6.6170    11.5690 c2         1 A1A       0.815100
      8 C2          -4.2690     0.5540    18.7810 ca         1 A1A       0.329000
      9 C3          -4.2610     0.7140    17.3920 ca         1 A1A      -0.151500
     10 C4          -3.4590    -0.0950    16.5990 ca         1 A1A      -0.077000
     11 C5          -2.6600    -1.0660    17.1710 ca         1 A1A       0.064100
     12 C6          -2.6510    -1.2390    18.5440 ca         1 A1A      -0.077000
     13 C7          -5.9430     2.3080    19.4040 c2         1 A1A       0.818100
     14 C8          -2.3120    -2.9820    15.8720 c          1 A1A       0.614700
     15 C9          -1.3260    -3.6740    15.0260 ca         1 A1A      -0.185600
     16 O1          -1.8290    -1.8330    16.3750 os         1 A1A      -0.355200
     17 O2          -3.4260    -3.3770    16.0990 o          1 A1A      -0.467000
     18 N1          -5.0260     1.3130    19.6610 nu         1 A1A      -0.930200
     19 N2          -6.2920     2.6190    18.2150 n2         1 A1A      -0.879100
     20 N3          -6.4570     2.8450    20.5640 nv         1 A1A      -1.075200
     21 N5           0.0990    -6.7790    10.9130 n2         1 A1A      -0.877100
     22 N6           2.3120    -7.3160    11.2470 nv         1 A1A      -1.036200
     23 H2          -3.4270    -0.5760    20.4130 ha         1 A1A       0.134500
     24 H5          -2.6700    -5.2950    14.6030 ha         1 A1A       0.135000
     25 H7          -1.1150    -6.5210    13.2020 ha         1 A1A       0.124000
     26 H8           1.8350    -3.4560    13.8240 ha         1 A1A       0.124000
     27 H6           0.2840    -2.2500    15.2530 ha         1 A1A       0.135000
     28 H1          -4.8860     1.4630    16.9360 ha         1 A1A       0.134500
     29 H3          -3.4620     0.0440    15.5250 ha         1 A1A       0.124500
     30 H4          -2.0230    -1.9950    19.0000 ha         1 A1A       0.124500
     31 H9          -4.9220     1.0560    20.6300 hn         1 A1A       0.492000
     32 H13         -6.9480     3.3910    18.2280 hn         1 A1A       0.384400
     33 H11         -5.8460     2.8910    21.3650 hn         1 A1A       0.457000
     34 H10         -6.9800     3.6980    20.4420 hn         1 A1A       0.457000
     35 H14          2.3630    -5.3920    12.6940 hn         1 A1A       0.496000
     36 H18         -0.5980    -6.0830    11.1420 hn         1 A1A       0.403400
     37 H16          2.9170    -7.5930    12.0040 hn         1 A1A       0.471500
     38 H15          2.1730    -8.0390    10.5590 hn         1 A1A       0.471500
     39 N4           1.4130    -5.7210    12.6100 nu         1 A1A      -0.982200
@<TRIPOS>BOND
     1     1     8 ar  
     2     1    12 ar  
     3     1    23 1   
     4     2     3 ar  
     5     2    15 ar  
     6     2    24 1   
     7     3     4 ar  
     8     3    25 1   
     9     4     5 ar  
    10     4    39 1   
    11     5     6 ar  
    12     5    26 1   
    13     6    15 ar  
    14     6    27 1   
    15     7    21 2   
    16     7    22 1   
    17     7    39 1   
    18     8     9 ar  
    19     8    18 1   
    20     9    10 ar  
    21     9    28 1   
    22    10    11 ar  
    23    10    29 1   
    24    11    12 ar  
    25    11    16 1   
    26    12    30 1   
    27    13    18 1   
    28    13    19 2   
    29    13    20 1   
    30    14    15 1   
    31    14    16 1   
    32    14    17 2   
    33    18    31 1   
    34    19    32 1   
    35    20    33 1   
    36    20    34 1   
    37    21    36 1   
    38    22    37 1   
    39    22    38 1   
    40    35    39 1   
@<TRIPOS>SUBSTRUCTURE
     1 A1A         1 TEMP              0 ****  ****    0 ROOT
