@<TRIPOS>MOLECULE
A1A
   37    38     1     0     0
SMALL
abcg2


@<TRIPOS>ATOM
      1 C14        -31.6490     2.9090   -36.5140 ca         1 A1A      -0.118000
      2 C13        -30.3210     3.1950   -36.7470 ca         1 A1A       0.119000
      3 C12        -29.9100     4.4740   -37.0740 ca         1 A1A       0.174000
      4 C11        -30.8310     5.5110   -37.1690 cp         1 A1A      -0.159500
      5 C15        -32.5920     3.9250   -36.6050 ca         1 A1A      -0.085300
      6 C16        -32.1690     5.2110   -36.9220 ca         1 A1A      -0.063000
      7 C17        -34.0410     3.6420   -36.3110 c3         1 A1A       0.211100
      8 C19        -35.8010     4.0560   -34.6640 c3         1 A1A       0.131800
      9 C20        -36.3350     2.6510   -34.4850 c3         1 A1A       0.138600
     10 C02        -28.9110     8.5850   -37.2240 ca         1 A1A       0.606900
     11 C03        -29.6120     9.4100   -38.1220 ca         1 A1A      -0.226000
     12 C04        -30.7540     8.9300   -38.7270 ca         1 A1A      -0.000300
     13 C05        -31.1650     7.6280   -38.4210 ca         1 A1A      -0.206000
     14 C06        -30.4150     6.8880   -37.5240 cp         1 A1A       0.449500
     15 F12        -28.6150     4.6670   -37.3340 f          1 A1A      -0.147000
     16 F13        -29.4010     2.2280   -36.6680 f          1 A1A      -0.163000
     17 F21        -35.6660     2.0140   -33.4350 f          1 A1A      -0.274000
     18 N01        -29.3130     7.3530   -36.9350 nb         1 A1A      -0.733000
     19 N02        -27.8030     9.0430   -36.5750 nv         1 A1A      -1.056900
     20 N18        -34.4010     4.1870   -35.0130 n7         1 A1A      -0.863400
     21 H1         -31.9430     1.8960   -36.2650 ha         1 A1A       0.133000
     22 H2         -32.9000     6.0090   -36.9720 ha         1 A1A       0.131000
     23 H3         -34.6690     4.1270   -37.0640 h1         1 A1A       0.037700
     24 H4         -34.2150     2.5620   -36.4100 h1         1 A1A       0.037700
     25 H5         -36.4040     4.5350   -35.4430 h1         1 A1A       0.063200
     26 H6         -35.9800     4.6230   -33.7470 h1         1 A1A       0.063200
     27 H7         -37.4000     2.6810   -34.2420 h1         1 A1A       0.046200
     28 H8         -36.2030     2.0410   -35.3800 h1         1 A1A       0.046200
     29 H9         -29.2500    10.4090   -38.3340 ha         1 A1A       0.120000
     30 H10        -32.0410     7.2040   -38.8950 ha         1 A1A       0.124000
     31 H11        -32.5140    10.0270   -39.2540 hc         1 A1A       0.047033
     32 H12        -31.0280    10.6990   -39.9240 hc         1 A1A       0.047033
     33 H13        -31.7360     9.2340   -40.6110 hc         1 A1A       0.047033
     34 H14        -27.2020     8.3450   -36.1690 hn         1 A1A       0.473000
     35 H15        -27.3170     9.8300   -36.9720 hn         1 A1A       0.473000
     36 H16        -33.8250     3.7670   -34.2940 hn         1 A1A       0.429000
     37 C07        -31.5430     9.7710   -39.6820 c3         1 A1A      -0.053800
@<TRIPOS>BOND
     1     1     2 ar  
     2     1     5 ar  
     3     1    21 1   
     4     2     3 ar  
     5     2    16 1   
     6     3     4 ar  
     7     3    15 1   
     8     4     6 ar  
     9     4    14 1   
    10     5     6 ar  
    11     5     7 1   
    12     6    22 1   
    13     7    20 1   
    14     7    23 1   
    15     7    24 1   
    16     8     9 1   
    17     8    20 1   
    18     8    25 1   
    19     8    26 1   
    20     9    17 1   
    21     9    27 1   
    22     9    28 1   
    23    10    11 ar  
    24    10    18 ar  
    25    10    19 1   
    26    11    12 ar  
    27    11    29 1   
    28    12    13 ar  
    29    12    37 1   
    30    13    14 ar  
    31    13    30 1   
    32    14    18 ar  
    33    19    34 1   
    34    19    35 1   
    35    20    36 1   
    36    31    37 1   
    37    32    37 1   
    38    33    37 1   
@<TRIPOS>SUBSTRUCTURE
     1 A1A         1 TEMP              0 ****  ****    0 ROOT
