@<TRIPOS>MOLECULE
A1A
   73    76     1     0     0
SMALL
abcg2


@<TRIPOS>ATOM
      1 C2         -21.0700   -37.2600   -11.2600 c3         1 A1A       0.132600
      2 C4         -26.6090   -40.6320   -14.3430 c          1 A1A       0.603100
      3 C5         -18.7430   -35.5300   -15.8900 c3         1 A1A       0.223000
      4 C6         -19.8080   -34.9750   -16.8300 c3         1 A1A      -0.106767
      5 C7         -24.9250   -42.3460   -13.6230 ca         1 A1A      -0.051300
      6 C8         -24.4090   -43.2110   -14.5810 ca         1 A1A      -0.105000
      7 C10        -22.1920   -43.0210   -13.6360 ca         1 A1A       0.252000
      8 C16        -21.5240   -37.7910   -12.6100 c3         1 A1A       0.100000
      9 C15        -19.8070   -42.5090   -13.6690 ca         1 A1A       0.597900
     10 C14        -18.1640   -34.4490   -14.9830 c3         1 A1A      -0.106767
     11 C13        -17.6240   -36.1610   -16.7090 c3         1 A1A      -0.106767
     12 C12        -24.0640   -41.8280   -12.6600 ca         1 A1A      -0.116000
     13 C11        -22.7340   -42.1840   -12.6660 ca         1 A1A       0.188000
     14 C1         -20.2700   -36.5130   -14.2550 c          1 A1A       0.638100
     15 C18        -17.8600   -40.6300   -13.7170 cp         1 A1A       0.373500
     16 C19        -17.4930   -41.9800   -13.6180 ca         1 A1A      -0.176000
     17 C20        -18.4670   -42.9670   -13.5870 ca         1 A1A      -0.133800
     18 C22        -16.5600   -44.2370   -13.3890 cc         1 A1A      -0.180400
     19 C23        -17.9130   -44.2740   -13.4480 cd         1 A1A      -0.162200
     20 C24        -16.8580   -39.5430   -13.7190 cp         1 A1A      -0.186500
     21 C25        -16.7150   -38.7310   -12.5850 ca         1 A1A       0.181100
     22 C26        -15.8120   -37.6720   -12.6150 ca         1 A1A      -0.202000
     23 C27        -15.0260   -37.4640   -13.7420 ca         1 A1A      -0.061000
     24 C28        -15.1270   -38.2950   -14.8470 ca         1 A1A      -0.155000
     25 C29        -16.0520   -39.3300   -14.8280 ca         1 A1A      -0.051000
     26 C31        -17.6340   -38.2230   -10.4160 c3         1 A1A       0.163600
     27 C32        -18.7650   -37.2510   -10.6520 c3         1 A1A       0.137600
     28 C9         -23.0600   -43.5330   -14.5940 ca         1 A1A      -0.117000
     29 F13        -21.9370   -41.7150   -11.6970 f          1 A1A      -0.159000
     30 N16        -20.0870   -41.2280   -13.7940 nb         1 A1A      -0.389000
     31 N17        -19.1280   -40.3140   -13.8020 nb         1 A1A      -0.285000
     32 N34        -20.5180   -37.6810   -13.6380 ns         1 A1A      -0.495900
     33 N5         -27.8220   -40.5080   -14.9020 nt         1 A1A      -0.615000
     34 O2         -20.9010   -35.4890   -14.0630 o          1 A1A      -0.580000
     35 O3         -19.2490   -36.6420   -15.1090 os         1 A1A      -0.471100
     36 O30        -17.4480   -39.0950   -11.5190 os         1 A1A      -0.329100
     37 O33        -19.9500   -37.9870   -10.8040 os         1 A1A      -0.452000
     38 O6         -25.7670   -39.7510   -14.3660 o          1 A1A      -0.582100
     39 S21        -15.9130   -42.6410   -13.4890 ss         1 A1A       0.156400
     40 H1         -20.8490   -36.1900   -11.3360 h1         1 A1A       0.044700
     41 H2         -21.8880   -37.3680   -10.5410 h1         1 A1A       0.044700
     42 H3         -26.7430   -41.8440   -12.6120 hc         1 A1A       0.062700
     43 H4         -26.9750   -42.7480   -14.0910 hc         1 A1A       0.062700
     44 H5         -20.6030   -34.4560   -16.3010 hc         1 A1A       0.045922
     45 H6         -19.3420   -34.2670   -17.5160 hc         1 A1A       0.045922
     46 H7         -20.2490   -35.7720   -17.4300 hc         1 A1A       0.045922
     47 H8         -25.0610   -43.6320   -15.3350 ha         1 A1A       0.114000
     48 H9         -22.4370   -37.2740   -12.9080 h1         1 A1A       0.067700
     49 H10        -21.7780   -38.8480   -12.5160 h1         1 A1A       0.067700
     50 H11        -18.9290   -33.9340   -14.4060 hc         1 A1A       0.045922
     51 H12        -17.4320   -34.8730   -14.2940 hc         1 A1A       0.045922
     52 H13        -17.6510   -33.7050   -15.5940 hc         1 A1A       0.045922
     53 H14        -16.8480   -36.5770   -16.0660 hc         1 A1A       0.045922
     54 H15        -18.0030   -36.9600   -17.3490 hc         1 A1A       0.045922
     55 H16        -17.1630   -35.4090   -17.3490 hc         1 A1A       0.045922
     56 H17        -24.4320   -41.1690   -11.8840 ha         1 A1A       0.136000
     57 H18        -15.8890   -45.0760   -13.2870 h4         1 A1A       0.220000
     58 H19        -18.4810   -45.1920   -13.3920 ha         1 A1A       0.204000
     59 H20        -15.6890   -37.0100   -11.7690 ha         1 A1A       0.117000
     60 H21        -14.3230   -36.6420   -13.7440 ha         1 A1A       0.111000
     61 H22        -14.5080   -38.1310   -15.7180 ha         1 A1A       0.117000
     62 H23        -16.1630   -39.9730   -15.6930 ha         1 A1A       0.118000
     63 H24        -17.8700   -38.8710    -9.5710 h1         1 A1A       0.060200
     64 H25        -16.7230   -37.6800   -10.1540 h1         1 A1A       0.060200
     65 H26        -18.8130   -36.5730    -9.7880 h1         1 A1A       0.030700
     66 H27        -18.5580   -36.6280   -11.5320 h1         1 A1A       0.030700
     67 H28        -22.6680   -44.1960   -15.3560 ha         1 A1A       0.115000
     68 H29        -20.6430   -44.3560   -13.8350 hn         1 A1A       0.498000
     69 H30        -19.9110   -38.4850   -13.7940 hn         1 A1A       0.370500
     70 H31        -28.0990   -39.6400   -15.3320 hn         1 A1A       0.312500
     71 H32        -28.5040   -41.2450   -14.8650 hn         1 A1A       0.312500
     72 N14        -20.8420   -43.3940   -13.6110 nu         1 A1A      -0.941900
     73 C3         -26.3720   -41.9600   -13.6350 c3         1 A1A      -0.117100
@<TRIPOS>BOND
     1     1     8 1   
     2     1    37 1   
     3     1    40 1   
     4     1    41 1   
     5     2    33 1   
     6     2    38 2   
     7     2    73 1   
     8     3     4 1   
     9     3    10 1   
    10     3    11 1   
    11     3    35 1   
    12     4    44 1   
    13     4    45 1   
    14     4    46 1   
    15     5     6 ar  
    16     5    12 ar  
    17     5    73 1   
    18     6    28 ar  
    19     6    47 1   
    20     7    13 ar  
    21     7    28 ar  
    22     7    72 1   
    23     8    32 1   
    24     8    48 1   
    25     8    49 1   
    26     9    17 ar  
    27     9    30 ar  
    28     9    72 1   
    29    10    50 1   
    30    10    51 1   
    31    10    52 1   
    32    11    53 1   
    33    11    54 1   
    34    11    55 1   
    35    12    13 ar  
    36    12    56 1   
    37    13    29 1   
    38    14    32 1   
    39    14    34 2   
    40    14    35 1   
    41    15    16 ar  
    42    15    20 1   
    43    15    31 ar  
    44    16    17 ar  
    45    16    39 1   
    46    17    19 1   
    47    18    19 2   
    48    18    39 1   
    49    18    57 1   
    50    19    58 1   
    51    20    21 ar  
    52    20    25 ar  
    53    21    22 ar  
    54    21    36 1   
    55    22    23 ar  
    56    22    59 1   
    57    23    24 ar  
    58    23    60 1   
    59    24    25 ar  
    60    24    61 1   
    61    25    62 1   
    62    26    27 1   
    63    26    36 1   
    64    26    63 1   
    65    26    64 1   
    66    27    37 1   
    67    27    65 1   
    68    27    66 1   
    69    28    67 1   
    70    30    31 ar  
    71    32    69 1   
    72    33    70 1   
    73    33    71 1   
    74    42    73 1   
    75    43    73 1   
    76    68    72 1   
@<TRIPOS>SUBSTRUCTURE
     1 A1A         1 TEMP              0 ****  ****    0 ROOT
