@<TRIPOS>MOLECULE
A1B
   31    33     1     0     0
SMALL
abcg2


@<TRIPOS>ATOM
      1 N1           9.6090    15.0810    22.2880 ns         1 A1B      -0.129000
      2 N3           8.7210    12.4370    21.8300 nc         1 A1B      -0.313400
      3 C4           7.6570    14.1590    25.3670 ca         1 A1B      -0.096000
      4 C5           8.4410    14.9410    24.4730 ca         1 A1B      -0.139000
      5 C6           8.8450    14.4400    23.2600 ca         1 A1B       0.002000
      6 C7          10.1040    16.3420    22.2880 c          1 A1B       0.617100
      7 C8          10.9440    16.6950    21.0670 c3         1 A1B      -0.182700
      8 C10         11.2070    15.0820    19.0910 cc         1 A1B       0.100900
      9 O            9.9440    17.1360    23.1950 o          1 A1B      -0.583100
     10 C9          10.5500    16.0210    19.8030 cd         1 A1B       0.220300
     11 N2           9.3560    16.2990    19.1600 nd         1 A1B      -0.664000
     12 C11          9.3580    15.5370    18.1260 cc         1 A1B       0.433900
     13 O1          10.4470    14.7710    18.0140 os         1 A1B      -0.254000
     14 C3           7.2620    12.8820    25.0850 ca         1 A1B      -0.091000
     15 C12          8.4440    13.1130    22.9450 ca         1 A1B      -0.094000
     16 C2           7.6630    12.3440    23.8420 ca         1 A1B      -0.116000
     17 C1           7.4910    11.1370    23.1700 cc         1 A1B      -0.203100
     18 N            8.1350    11.2620    22.0030 na         1 A1B       0.151500
     19 C            8.2300    10.2620    20.9640 c3         1 A1B       0.062900
     20 H7           9.8160    14.5090    21.4800 hn         1 A1B       0.171000
     21 H5           7.3710    14.6110    26.3080 ha         1 A1B       0.112000
     22 H6           8.7110    15.9410    24.7720 ha         1 A1B       0.145000
     23 H8          10.8980    17.7780    20.9480 hc         1 A1B       0.084700
     24 H9          11.9830    16.4490    21.3060 hc         1 A1B       0.084700
     25 H11          8.6030    15.4480    17.3600 h5         1 A1B       0.085100
     26 H4           6.6660    12.3090    25.7820 ha         1 A1B       0.116000
     27 H3           6.9710    10.2320    23.4380 h4         1 A1B       0.227000
     28 H1           9.2740    10.0320    20.7670 h1         1 A1B       0.061033
     29 H2           7.7200     9.3620    21.2920 h1         1 A1B       0.061033
     30 H            7.7640    10.6280    20.0520 h1         1 A1B       0.061033
     31 H10         12.1510    14.5750    19.2080 h4         1 A1B       0.068100
@<TRIPOS>BOND
     1     1     5 1   
     2     1     6 1   
     3     1    20 1   
     4     2    15 2   
     5     2    18 1   
     6     3     4 ar  
     7     3    14 ar  
     8     3    21 1   
     9     4     5 ar  
    10     4    22 1   
    11     5    15 ar  
    12     6     7 1   
    13     6     9 2   
    14     7    10 1   
    15     7    23 1   
    16     7    24 1   
    17     8    10 2   
    18     8    13 1   
    19     8    31 1   
    20    10    11 1   
    21    11    12 2   
    22    12    13 1   
    23    12    25 1   
    24    14    16 ar  
    25    14    26 1   
    26    15    16 ar  
    27    16    17 2   
    28    17    18 1   
    29    17    27 1   
    30    18    19 1   
    31    19    28 1   
    32    19    29 1   
    33    19    30 1   
@<TRIPOS>SUBSTRUCTURE
     1 A1B         1 TEMP              0 ****  ****    0 ROOT
