@<TRIPOS>MOLECULE
A1B
   38    40     1     0     0
SMALL
abcg2


@<TRIPOS>ATOM
      1 O1          -4.5400     5.9240     9.0080 o          1 A1B      -0.589100
      2 C1          -5.1660    -0.5140    16.1720 ca         1 A1B      -0.135600
      3 C2          -5.4800    -0.3600    17.5310 ca         1 A1B      -0.107000
      4 C3          -5.5880     0.8960    18.0790 ca         1 A1B      -0.085000
      5 C4          -5.3830     2.0450    17.3020 ca         1 A1B      -0.081000
      6 C5          -5.0800     1.8970    15.9350 ca         1 A1B       0.310000
      7 C6          -4.9880     0.6080    15.3900 ca         1 A1B      -0.042000
      8 C7          -4.9260     4.1710    15.5460 ca         1 A1B       0.643900
      9 C8          -5.2490     4.4720    16.9400 ca         1 A1B      -0.073000
     10 C9          -5.3640     5.7690    17.4530 ca         1 A1B      -0.140000
     11 C10         -5.6720     5.9390    18.7820 ca         1 A1B       0.326900
     12 C11         -5.7780     3.6980    19.1470 ca         1 A1B       0.352900
     13 C12         -5.4710     3.3940    17.8090 ca         1 A1B      -0.039000
     14 C13         -4.3650     4.9470    13.3020 c3         1 A1B       0.201800
     15 C14         -4.2430     6.2760    12.5680 c3         1 A1B       0.090000
     16 C15         -4.7840     6.1290    10.1820 c          1 A1B       0.604900
     17 N4          -3.8920     6.0890    11.1820 ns         1 A1B      -0.522900
     18 N3          -4.7130     5.1820    14.6830 nu         1 A1B      -0.937100
     19 N2          -5.8740     4.9180    19.6220 nb         1 A1B      -0.650000
     20 N1          -4.8580     2.9530    15.0990 nb         1 A1B      -0.763000
     21 O           -5.1950    -1.9850    14.3100 o          1 A1B      -0.597100
     22 N           -4.7540    -2.8880    16.3260 nt         1 A1B      -0.604000
     23 H1          -5.6670    -1.2190    18.1630 ha         1 A1B       0.114000
     24 H2          -5.8410     0.9800    19.1270 ha         1 A1B       0.114000
     25 H3          -4.7570     0.5140    14.3370 ha         1 A1B       0.152000
     26 H4          -5.2280     6.6520    16.8440 ha         1 A1B       0.117000
     27 H5          -5.7640     6.9350    19.1980 h4         1 A1B       0.024100
     28 H6          -5.9550     2.9000    19.8590 h4         1 A1B       0.025100
     29 H7          -5.1380     4.3390    12.8250 h1         1 A1B       0.064200
     30 H8          -3.4270     4.3870    13.2230 h1         1 A1B       0.064200
     31 H9          -3.4900     6.9060    13.0450 h1         1 A1B       0.050700
     32 H10         -5.1900     6.8180    12.6180 h1         1 A1B       0.050700
     33 H11         -5.7950     6.3880    10.5410 h5         1 A1B       0.006200
     34 H12         -2.9390     5.8360    10.9620 hn         1 A1B       0.316500
     35 H13         -4.5670     6.1100    15.0420 hn         1 A1B       0.492000
     36 H14         -4.6270    -3.8050    15.9290 hn         1 A1B       0.314000
     37 H15         -4.4820    -2.7700    17.2860 hn         1 A1B       0.314000
     38 C           -5.0410    -1.8560    15.5160 c          1 A1B       0.615700
@<TRIPOS>BOND
     1     1    16 2   
     2     2     3 ar  
     3     2     7 ar  
     4     2    38 1   
     5     3     4 ar  
     6     3    23 1   
     7     4     5 ar  
     8     4    24 1   
     9     5     6 ar  
    10     5    13 ar  
    11     6     7 ar  
    12     6    20 ar  
    13     7    25 1   
    14     8     9 ar  
    15     8    18 1   
    16     8    20 ar  
    17     9    10 ar  
    18     9    13 ar  
    19    10    11 ar  
    20    10    26 1   
    21    11    19 ar  
    22    11    27 1   
    23    12    13 ar  
    24    12    19 ar  
    25    12    28 1   
    26    14    15 1   
    27    14    18 1   
    28    14    29 1   
    29    14    30 1   
    30    15    17 1   
    31    15    31 1   
    32    15    32 1   
    33    16    17 1   
    34    16    33 1   
    35    17    34 1   
    36    18    35 1   
    37    21    38 2   
    38    22    36 1   
    39    22    37 1   
    40    22    38 1   
@<TRIPOS>SUBSTRUCTURE
     1 A1B         1 TEMP              0 ****  ****    0 ROOT
