@<TRIPOS>MOLECULE
A1B
   40    41     1     0     0
SMALL
abcg2


@<TRIPOS>ATOM
      1 N1         -19.1720   -36.8340   -23.9850 n          1 A1B      -0.417800
      2 C4         -16.1310   -39.7600   -26.4670 c6         1 A1B      -0.080400
      3 C5         -17.2570   -38.7390   -26.5100 c6         1 A1B      -0.060400
      4 C6         -17.8460   -38.5510   -25.1150 c6         1 A1B      -0.135700
      5 C7         -18.9640   -37.5200   -25.1200 c          1 A1B       0.606100
      6 C8         -20.2010   -35.7990   -23.9110 c5         1 A1B       0.100500
      7 C10        -19.2210   -36.1180   -21.7570 c5         1 A1B      -0.094900
      8 N          -17.1940   -40.8120   -24.5520 n3         1 A1B      -0.771500
      9 C          -19.5780   -40.4630   -25.2000 c3         1 A1B      -0.120100
     10 O          -18.0760   -41.7470   -22.3870 o          1 A1B      -0.543500
     11 C1         -18.3380   -39.8900   -24.5230 c6         1 A1B       0.242500
     12 C11        -18.3950   -36.9260   -22.7500 c5         1 A1B       0.100500
     13 C2         -15.4980   -41.9800   -22.8340 c3         1 A1B      -0.345100
     14 C3         -16.6010   -41.0720   -25.8650 c6         1 A1B       0.209800
     15 C9         -19.8600   -35.0460   -22.6310 c5         1 A1B      -0.094900
     16 O1         -17.3110   -43.3400   -24.1580 o          1 A1B      -0.543500
     17 O2         -19.6510   -37.3310   -26.1190 o          1 A1B      -0.608100
     18 S          -17.1550   -42.0620   -23.4720 s6         1 A1B       1.203100
     19 H11        -15.2950   -39.3760   -25.8760 hc         1 A1B       0.048200
     20 H10        -15.7530   -39.9510   -27.4740 hc         1 A1B       0.048200
     21 H13        -16.8800   -37.7850   -26.8830 hc         1 A1B       0.059700
     22 H12        -18.0270   -39.0670   -27.2100 hc         1 A1B       0.059700
     23 H1         -17.0390   -38.2070   -24.4590 hc         1 A1B       0.063700
     24 H15        -20.1770   -35.1610   -24.7940 h1         1 A1B       0.051950
     25 H14        -21.1950   -36.2520   -23.8570 h1         1 A1B       0.051950
     26 H19        -18.6090   -35.7150   -20.9510 hc         1 A1B       0.055950
     27 H18        -19.9890   -36.7520   -21.3090 hc         1 A1B       0.055950
     28 H3         -20.4370   -39.8100   -25.0530 hc         1 A1B       0.053033
     29 H4         -19.4500   -40.6070   -26.2720 hc         1 A1B       0.053033
     30 H2         -19.8300   -41.4280   -24.7590 hc         1 A1B       0.053033
     31 H          -18.5780   -39.7220   -23.4740 h1         1 A1B       0.078700
     32 H21        -17.4010   -36.4890   -22.8830 h1         1 A1B       0.051950
     33 H20        -18.2660   -37.9570   -22.4230 h1         1 A1B       0.051950
     34 H5         -15.3790   -42.7900   -22.1160 h1         1 A1B       0.101367
     35 H7         -14.7760   -42.1020   -23.6390 h1         1 A1B       0.101367
     36 H6         -15.3570   -41.0200   -22.3450 h1         1 A1B       0.101367
     37 H9         -15.7510   -41.7460   -25.7570 h1         1 A1B       0.050700
     38 H8         -17.3140   -41.5670   -26.5330 h1         1 A1B       0.050700
     39 H17        -19.1400   -34.2530   -22.8410 hc         1 A1B       0.055950
     40 H16        -20.7380   -34.5870   -22.1770 hc         1 A1B       0.055950
@<TRIPOS>BOND
     1     1     5 1   
     2     1     6 1   
     3     1    12 1   
     4     2     3 1   
     5     2    14 1   
     6     2    19 1   
     7     2    20 1   
     8     3     4 1   
     9     3    21 1   
    10     3    22 1   
    11     4     5 1   
    12     4    11 1   
    13     4    23 1   
    14     5    17 2   
    15     6    15 1   
    16     6    24 1   
    17     6    25 1   
    18     7    12 1   
    19     7    15 1   
    20     7    26 1   
    21     7    27 1   
    22     8    11 1   
    23     8    14 1   
    24     8    18 1   
    25     9    11 1   
    26     9    28 1   
    27     9    29 1   
    28     9    30 1   
    29    10    18 2   
    30    11    31 1   
    31    12    32 1   
    32    12    33 1   
    33    13    18 1   
    34    13    34 1   
    35    13    35 1   
    36    13    36 1   
    37    14    37 1   
    38    14    38 1   
    39    15    39 1   
    40    15    40 1   
    41    16    18 2   
@<TRIPOS>SUBSTRUCTURE
     1 A1B         1 TEMP              0 ****  ****    0 ROOT
