@<TRIPOS>MOLECULE
A1B
   34    36     1     0     0
SMALL
abcg2


@<TRIPOS>ATOM
      1 N1           9.7540    17.0460    19.6570 nc         1 A1B      -0.672000
      2 C4          10.4160    15.0920    18.8570 cd         1 A1B       0.083900
      3 C5           8.9570    16.6440    18.7330 cd         1 A1B       0.435900
      4 C6           9.2770    12.3560    22.3970 c5         1 A1B       0.099000
      5 C7           8.1380    11.3500    22.5990 c5         1 A1B      -0.035100
      6 C8           7.5170    11.7910    23.8920 ca         1 A1B      -0.149300
      7 C10          6.1020    11.7750    25.8220 ca         1 A1B      -0.141000
      8 C13          8.0200    13.0400    24.2620 ca         1 A1B      -0.005000
      9 O            9.2300    15.6050    24.0130 o          1 A1B      -0.623100
     10 C            9.5910    14.6770    23.3000 c          1 A1B       0.672100
     11 N2           8.9820    13.4470    23.3330 n          1 A1B      -0.241400
     12 C12          7.5680    13.6670    25.4170 ca         1 A1B      -0.121000
     13 C11          6.6070    13.0150    26.1860 ca         1 A1B      -0.086000
     14 C9           6.5620    11.1580    24.6610 ca         1 A1B      -0.071000
     15 N           10.6010    14.7910    22.4050 ns         1 A1B      -0.523900
     16 C1          11.3120    16.0290    22.1890 c3         1 A1B       0.117000
     17 C3          10.7130    16.0530    19.7560 cc         1 A1B       0.243300
     18 O1           9.2910    15.4680    18.1980 os         1 A1B      -0.257000
     19 H5          10.8700    14.1530    18.5840 h4         1 A1B       0.061100
     20 H6           8.0770    17.1370    18.3500 h5         1 A1B       0.084100
     21 H8           9.3150    12.7270    21.3730 h1         1 A1B       0.043700
     22 H7          10.2460    11.9050    22.6330 h1         1 A1B       0.043700
     23 H10          7.4130    11.4080    21.7840 hc         1 A1B       0.059200
     24 H9           8.5070    10.3260    22.6310 hc         1 A1B       0.059200
     25 H12          5.3560    11.2890    26.4370 ha         1 A1B       0.114000
     26 H14          7.9430    14.6300    25.7230 ha         1 A1B       0.148000
     27 H13          6.2520    13.4940    27.0900 ha         1 A1B       0.113000
     28 H11          6.1760    10.1900    24.3640 ha         1 A1B       0.111000
     29 H           10.9960    13.9680    21.9810 hn         1 A1B       0.306500
     30 H2          10.6390    16.8610    22.3900 h1         1 A1B       0.064200
     31 H1          12.1610    16.1270    22.8730 h1         1 A1B       0.064200
     32 H3          12.3770    17.0410    20.6400 hc         1 A1B       0.057200
     33 H4          12.5230    15.2970    20.5560 hc         1 A1B       0.057200
     34 C2          11.8170    16.1090    20.7510 c3         1 A1B      -0.113700
@<TRIPOS>BOND
     1     1     3 2   
     2     1    17 1   
     3     2    17 2   
     4     2    18 1   
     5     2    19 1   
     6     3    18 1   
     7     3    20 1   
     8     4     5 1   
     9     4    11 1   
    10     4    21 1   
    11     4    22 1   
    12     5     6 1   
    13     5    23 1   
    14     5    24 1   
    15     6     8 ar  
    16     6    14 ar  
    17     7    13 ar  
    18     7    14 ar  
    19     7    25 1   
    20     8    11 1   
    21     8    12 ar  
    22     9    10 2   
    23    10    11 1   
    24    10    15 1   
    25    12    13 ar  
    26    12    26 1   
    27    13    27 1   
    28    14    28 1   
    29    15    16 1   
    30    15    29 1   
    31    16    30 1   
    32    16    31 1   
    33    16    34 1   
    34    17    34 1   
    35    32    34 1   
    36    33    34 1   
@<TRIPOS>SUBSTRUCTURE
     1 A1B         1 TEMP              0 ****  ****    0 ROOT
