@<TRIPOS>MOLECULE
A1B
   35    37     1     0     0
SMALL
abcg2


@<TRIPOS>ATOM
      1 C01        -12.5640    -8.8770    17.4350 c6         1 A1B       0.231700
      2 C02        -14.0340    -9.1440    17.7660 c3         1 A1B      -0.043400
      3 C03        -14.2700    -9.8340    19.1020 c3         1 A1B      -0.200400
      4 C04        -15.7500   -10.1130    19.4250 c          1 A1B       0.714000
      5 C08        -10.3770    -9.9350    17.2220 c6         1 A1B       0.040500
      6 C09         -9.7940    -9.3690    18.5160 c6         1 A1B       0.022800
      7 C10        -10.6390    -8.2130    18.9450 cc         1 A1B      -0.133400
      8 C11        -11.8830    -7.9940    18.4290 cd         1 A1B      -0.021300
      9 C13        -11.5000    -6.2780    19.8010 ca         1 A1B      -0.058200
     10 C14        -11.5730    -5.1070    20.5500 ca         1 A1B      -0.133000
     11 C15        -10.4870    -4.7880    21.3460 ca         1 A1B      -0.129000
     12 C16         -9.3520    -5.6130    21.3940 ca         1 A1B      -0.172000
     13 C17         -9.2840    -6.7750    20.6470 ca         1 A1B      -0.061000
     14 C18        -10.3670    -7.1260    19.8340 ca         1 A1B      -0.079800
     15 C19         -9.7060   -11.2490    16.7570 c          1 A1B       0.726000
     16 N07        -11.8090   -10.1160    17.3910 n7         1 A1B      -0.851400
     17 N12        -12.4010    -6.8310    18.9340 na         1 A1B      -0.216700
     18 O05        -16.5890    -9.2900    19.0030 o          1 A1B      -0.760000
     19 O06        -15.9900   -11.1280    20.1120 o          1 A1B      -0.760000
     20 O20        -10.4310   -12.0630    16.1500 o          1 A1B      -0.739500
     21 O21         -8.4870   -11.3610    16.9890 o          1 A1B      -0.739500
     22 H1         -12.5430    -8.3540    16.4590 h1         1 A1B      -0.009300
     23 H2         -14.5860    -8.2010    17.7290 hc         1 A1B       0.026700
     24 H3         -14.4490    -9.7520    16.9550 hc         1 A1B       0.026700
     25 H4         -13.6980   -10.7610    19.1430 hc         1 A1B       0.036700
     26 H5         -13.8700    -9.2060    19.9090 hc         1 A1B       0.036700
     27 H6         -10.1660    -9.1900    16.4280 h1         1 A1B      -0.010300
     28 H7          -9.7590   -10.1460    19.2880 hc         1 A1B       0.047700
     29 H8          -8.7620    -9.0510    18.3520 hc         1 A1B       0.047700
     30 H9         -12.4460    -4.4680    20.5110 ha         1 A1B       0.095000
     31 H10        -10.5130    -3.8840    21.9410 ha         1 A1B       0.080000
     32 H11         -8.5210    -5.3320    22.0280 ha         1 A1B       0.083000
     33 H12         -8.4030    -7.4040    20.6910 ha         1 A1B       0.107000
     34 H13        -12.1510   -10.7040    16.6420 hn         1 A1B       0.445000
     35 H15        -13.3110    -6.4540    18.7260 hn         1 A1B       0.349000
@<TRIPOS>BOND
     1     1     2 1   
     2     1     8 1   
     3     1    16 1   
     4     1    22 1   
     5     2     3 1   
     6     2    23 1   
     7     2    24 1   
     8     3     4 1   
     9     3    25 1   
    10     3    26 1   
    11     4    18 1   
    12     4    19 1   
    13     5     6 1   
    14     5    15 1   
    15     5    16 1   
    16     5    27 1   
    17     6     7 1   
    18     6    28 1   
    19     6    29 1   
    20     7     8 2   
    21     7    14 1   
    22     8    17 1   
    23     9    10 ar  
    24     9    14 ar  
    25     9    17 1   
    26    10    11 ar  
    27    10    30 1   
    28    11    12 ar  
    29    11    31 1   
    30    12    13 ar  
    31    12    32 1   
    32    13    14 ar  
    33    13    33 1   
    34    15    20 1   
    35    15    21 1   
    36    16    34 1   
    37    17    35 1   
@<TRIPOS>SUBSTRUCTURE
     1 A1B         1 TEMP              0 ****  ****    0 ROOT
