@<TRIPOS>MOLECULE
A1B
   37    39     1     0     0
SMALL
abcg2


@<TRIPOS>ATOM
      1 N1          10.4440    16.5930    19.0580 nc         1 A1B      -0.687000
      2 N3          10.8020     9.9940    24.2430 na         1 A1B       0.076600
      3 C4          12.2110    15.0090    19.8640 c3         1 A1B      -0.093700
      4 C5          11.0550    15.9180    20.1020 cc         1 A1B       0.240300
      5 C6          10.4370    16.2750    21.2480 cd         1 A1B       0.111900
      6 C7           9.5230    17.2970    19.6110 cd         1 A1B       0.425900
      7 C8          11.4120    11.9030    23.5120 cc         1 A1B       0.343900
      8 C10          9.6460    10.6920    24.1230 ca         1 A1B      -0.042200
      9 C13          7.6940    12.5760    23.6650 ca         1 A1B      -0.153000
     10 C15          9.9960    11.9630    23.6370 ca         1 A1B      -0.206900
     11 C1          12.4530    14.0270    24.0560 c1         1 A1B      -0.139100
     12 C2          12.3490    12.9730    23.0380 c3         1 A1B       0.260300
     13 C14          9.0000    12.9200    23.4010 ca         1 A1B      -0.021000
     14 C12          7.3610    11.2960    24.1540 ca         1 A1B      -0.072000
     15 C11          8.3190    10.3370    24.3930 ca         1 A1B      -0.134000
     16 C9          10.9750     8.6670    24.7760 c3         1 A1B       0.081900
     17 N2          11.8570    10.7290    23.8810 nd         1 A1B      -0.514100
     18 N           11.8600    13.5340    21.7890 n7         1 A1B      -0.867400
     19 C3          12.8070    14.4150    21.1300 c3         1 A1B       0.155800
     20 O            9.4560    17.1620    20.9360 os         1 A1B      -0.264000
     21 H5          12.9920    15.5640    19.3380 hc         1 A1B       0.060700
     22 H6          11.9090    14.2060    19.1840 hc         1 A1B       0.060700
     23 H7          10.5580    16.0080    22.2840 h4         1 A1B       0.076100
     24 H8           8.8190    17.9650    19.1380 h5         1 A1B       0.079100
     25 H14          6.9040    13.2950    23.4950 ha         1 A1B       0.115000
     26 H1          12.6370    15.6370    25.6420 ha         1 A1B       0.255000
     27 H           13.3470    12.5160    22.9390 h1         1 A1B       0.058700
     28 H15          9.2540    13.8990    23.0170 ha         1 A1B       0.131000
     29 H13          6.3220    11.0630    24.3480 ha         1 A1B       0.111000
     30 H12          8.0530     9.3580    24.7710 ha         1 A1B       0.118000
     31 H10         11.9160     8.2630    24.4140 h1         1 A1B       0.054033
     32 H9          10.9860     8.6740    25.8670 h1         1 A1B       0.054033
     33 H11         10.1660     8.0240    24.4370 h1         1 A1B       0.054033
     34 H16         11.6330    12.7670    21.1650 hn         1 A1B       0.426000
     35 H3          13.0740    15.2220    21.8170 h1         1 A1B       0.038200
     36 H4          13.7450    13.9020    20.8740 h1         1 A1B       0.038200
     37 C           12.5520    14.8820    24.8950 c1         1 A1B      -0.231000
@<TRIPOS>BOND
     1     1     4 1   
     2     1     6 2   
     3     2     8 1   
     4     2    16 1   
     5     2    17 1   
     6     3     4 1   
     7     3    19 1   
     8     3    21 1   
     9     3    22 1   
    10     4     5 2   
    11     5    20 1   
    12     5    23 1   
    13     6    20 1   
    14     6    24 1   
    15     7    10 1   
    16     7    12 1   
    17     7    17 2   
    18     8    10 ar  
    19     8    15 ar  
    20     9    13 ar  
    21     9    14 ar  
    22     9    25 1   
    23    10    13 ar  
    24    11    12 1   
    25    11    37 3   
    26    12    18 1   
    27    12    27 1   
    28    13    28 1   
    29    14    15 ar  
    30    14    29 1   
    31    15    30 1   
    32    16    31 1   
    33    16    32 1   
    34    16    33 1   
    35    18    19 1   
    36    18    34 1   
    37    19    35 1   
    38    19    36 1   
    39    26    37 1   
@<TRIPOS>SUBSTRUCTURE
     1 A1B         1 TEMP              0 ****  ****    0 ROOT
