@<TRIPOS>MOLECULE
A1B
   44    46     1     0     0
SMALL
abcg2


@<TRIPOS>ATOM
      1 N1           9.4230    15.9660    21.6200 n          1 A1B      -0.416800
      2 C4          10.6490    16.4940    22.2090 c6         1 A1B       0.106000
      3 C5           8.5040    15.2420    22.2930 c          1 A1B       0.604100
      4 C6           8.7570    15.0520    23.7840 c3         1 A1B      -0.105100
      5 C7           7.5920    14.4220    24.4860 ca         1 A1B      -0.092300
      6 C8           7.4560    13.0410    24.5570 ca         1 A1B      -0.058000
      7 C10          5.3970    13.2670    25.7730 ca         1 A1B      -0.009000
      8 C13          4.4770    15.4690    26.4350 c6         1 A1B      -0.021100
      9 C15          3.1450    13.3520    26.7220 c          1 A1B       0.571000
     10 O2           2.2080    12.7830    27.2530 o          1 A1B      -0.544000
     11 N2           4.3010    12.6990    26.4270 ns         1 A1B      -0.150000
     12 C9           6.3670    12.4610    25.1890 ca         1 A1B      -0.154000
     13 C14          3.1140    14.8020    26.3080 c6         1 A1B      -0.161400
     14 C11          5.5220    14.6550    25.7330 ca         1 A1B      -0.124300
     15 C12          6.6120    15.2110    25.0800 ca         1 A1B      -0.060000
     16 O1           7.5190    14.7600    21.7520 o          1 A1B      -0.593100
     17 C3          11.7550    16.5580    21.1550 c6         1 A1B      -0.094400
     18 C2          11.6560    15.3620    20.2200 c6         1 A1B      -0.059400
     19 C16          9.2840    16.2060    20.1980 c6         1 A1B       0.105000
     20 C1          10.3280    15.3940    19.4240 c6         1 A1B      -0.167700
     21 C           10.5630    15.9940    18.0500 c          1 A1B       0.607100
     22 O           10.7110    17.1970    17.8840 o          1 A1B      -0.608100
     23 N           10.6360    15.1080    17.0460 nt         1 A1B      -0.607000
     24 H8          10.9790    15.8360    23.0120 h1         1 A1B       0.041700
     25 H7          10.4760    17.4810    22.6480 h1         1 A1B       0.041700
     26 H10          9.6470    14.4280    23.9070 hc         1 A1B       0.063200
     27 H9           9.0000    16.0130    24.2440 hc         1 A1B       0.063200
     28 H11          8.2080    12.4020    24.1100 ha         1 A1B       0.114000
     29 H14          4.7400    15.5640    27.4940 hc         1 A1B       0.057200
     30 H15          4.4400    16.4820    26.0330 hc         1 A1B       0.057200
     31 H18          4.3220    11.7050    26.6100 hn         1 A1B       0.157000
     32 H12          6.2710    11.3820    25.2270 ha         1 A1B       0.118000
     33 H16          2.3600    15.3170    26.9010 hc         1 A1B       0.077200
     34 H17          2.7790    14.8370    25.2650 hc         1 A1B       0.077200
     35 H13          6.7020    16.2910    25.0460 ha         1 A1B       0.112000
     36 H5          12.7190    16.5700    21.6660 hc         1 A1B       0.059700
     37 H6          11.7000    17.4860    20.5820 hc         1 A1B       0.059700
     38 H4          11.6910    14.4420    20.8090 hc         1 A1B       0.046700
     39 H3          12.5150    15.3220    19.5480 hc         1 A1B       0.046700
     40 H20          8.2770    15.9500    19.8780 h1         1 A1B       0.075700
     41 H19          9.4170    17.2730    20.0110 h1         1 A1B       0.075700
     42 H            9.9620    14.3700    19.3150 hc         1 A1B       0.061700
     43 H1          10.8440    15.4140    16.1090 hn         1 A1B       0.314500
     44 H2          10.5110    14.1210    17.1940 hn         1 A1B       0.314500
@<TRIPOS>BOND
     1     1     2 1   
     2     1     3 1   
     3     1    19 1   
     4     2    17 1   
     5     2    24 1   
     6     2    25 1   
     7     3     4 1   
     8     3    16 2   
     9     4     5 1   
    10     4    26 1   
    11     4    27 1   
    12     5     6 ar  
    13     5    15 ar  
    14     6    12 ar  
    15     6    28 1   
    16     7    11 1   
    17     7    12 ar  
    18     7    14 ar  
    19     8    13 1   
    20     8    14 1   
    21     8    29 1   
    22     8    30 1   
    23     9    10 2   
    24     9    11 1   
    25     9    13 1   
    26    11    31 1   
    27    12    32 1   
    28    13    33 1   
    29    13    34 1   
    30    14    15 ar  
    31    15    35 1   
    32    17    18 1   
    33    17    36 1   
    34    17    37 1   
    35    18    20 1   
    36    18    38 1   
    37    18    39 1   
    38    19    20 1   
    39    19    40 1   
    40    19    41 1   
    41    20    21 1   
    42    20    42 1   
    43    21    22 2   
    44    21    23 1   
    45    23    43 1   
    46    23    44 1   
@<TRIPOS>SUBSTRUCTURE
     1 A1B         1 TEMP              0 ****  ****    0 ROOT
