@<TRIPOS>MOLECULE
A1B
   37    39     1     0     0
SMALL
abcg2


@<TRIPOS>ATOM
      1 N1          24.9230    14.3160    10.3740 n          1 A1B      -0.414800
      2 C4          23.7780    14.3930     9.6630 c          1 A1B       0.565000
      3 C5          26.1590    14.0700     9.6550 c3         1 A1B       0.150300
      4 C6          26.3520    12.6290     9.2380 ca         1 A1B      -0.073300
      5 C7          25.8800    11.5750    10.0440 ca         1 A1B      -0.132000
      6 C8          26.0970    10.2540     9.7100 ca         1 A1B      -0.061000
      7 C10         27.2060     8.7420     7.8930 cc         1 A1B      -0.240200
      8 C13         27.0490    12.3530     8.0760 ca         1 A1B      -0.112000
      9 O1          23.7680    14.2470     8.4470 o          1 A1B      -0.559000
     10 C3          22.4860    14.6270    10.4140 c6         1 A1B      -0.161400
     11 C2          22.6400    15.1290    11.8380 c6         1 A1B      -0.065400
     12 C14         25.0380    14.5280    11.8110 c6         1 A1B       0.121000
     13 C1          23.7200    14.3060    12.5320 c6         1 A1B      -0.164700
     14 C           23.8420    14.7040    13.9920 c          1 A1B       0.607100
     15 O           24.2620    15.8040    14.3230 o          1 A1B      -0.601100
     16 N           23.4330    13.7800    14.8710 nt         1 A1B      -0.605000
     17 C12         27.2730    11.0180     7.7420 ca         1 A1B      -0.046200
     18 N2          27.9160    10.4720     6.6700 na         1 A1B      -0.224700
     19 C11         27.8750     9.1090     6.7610 cd         1 A1B      -0.163100
     20 C9          26.8070     9.9520     8.5410 ca         1 A1B      -0.098800
     21 H9          26.2180    14.7180     8.7800 h1         1 A1B       0.058700
     22 H8          26.9780    14.3710    10.3130 h1         1 A1B       0.058700
     23 H10         25.3230    11.8020    10.9450 ha         1 A1B       0.103000
     24 H11         25.7200     9.4620    10.3450 ha         1 A1B       0.111000
     25 H12         27.0220     7.7320     8.2230 ha         1 A1B       0.204000
     26 H14         27.4070    13.1550     7.4410 ha         1 A1B       0.114000
     27 H7          21.9520    13.6710    10.4140 hc         1 A1B       0.073200
     28 H6          21.8800    15.3110     9.8180 hc         1 A1B       0.073200
     29 H5          21.6870    15.0500    12.3640 hc         1 A1B       0.060700
     30 H4          22.9260    16.1830    11.8470 hc         1 A1B       0.060700
     31 H16         25.7900    13.8360    12.1950 h1         1 A1B       0.056700
     32 H15         25.4030    15.5410    12.0060 h1         1 A1B       0.056700
     33 H           23.4550    13.2450    12.4560 hc         1 A1B       0.059700
     34 H3          23.4420    13.9760    15.8590 hn         1 A1B       0.316500
     35 H2          23.0870    12.8820    14.5800 hn         1 A1B       0.316500
     36 H1          28.3510    10.9880     5.9230 hn         1 A1B       0.349000
     37 H13         28.3350     8.4960     6.0020 h4         1 A1B       0.210000
@<TRIPOS>BOND
     1     1     2 1   
     2     1     3 1   
     3     1    12 1   
     4     2     9 2   
     5     2    10 1   
     6     3     4 1   
     7     3    21 1   
     8     3    22 1   
     9     4     5 ar  
    10     4     8 ar  
    11     5     6 ar  
    12     5    23 1   
    13     6    20 ar  
    14     6    24 1   
    15     7    19 2   
    16     7    20 1   
    17     7    25 1   
    18     8    17 ar  
    19     8    26 1   
    20    10    11 1   
    21    10    27 1   
    22    10    28 1   
    23    11    13 1   
    24    11    29 1   
    25    11    30 1   
    26    12    13 1   
    27    12    31 1   
    28    12    32 1   
    29    13    14 1   
    30    13    33 1   
    31    14    15 2   
    32    14    16 1   
    33    16    34 1   
    34    16    35 1   
    35    17    18 1   
    36    17    20 ar  
    37    18    19 1   
    38    18    36 1   
    39    19    37 1   
@<TRIPOS>SUBSTRUCTURE
     1 A1B         1 TEMP              0 ****  ****    0 ROOT
