@<TRIPOS>MOLECULE
A1B
   37    38     1     0     0
SMALL
abcg2


@<TRIPOS>ATOM
      1 N1          11.3630    13.3660    17.9660 nt         1 A1B      -0.605000
      2 C4          10.4680     9.5410    23.1300 ca         1 A1B      -0.116000
      3 C5          10.6110    10.9200    23.0460 ca         1 A1B      -0.089000
      4 C6           9.7580    11.7800    23.7250 ca         1 A1B      -0.081300
      5 C7           9.9070    13.2810    23.6390 c3         1 A1B       0.134300
      6 C8          10.4330    13.8540    21.3220 c6         1 A1B       0.115000
      7 C10         11.0340    14.2290    18.9360 c          1 A1B       0.608100
      8 C13         12.1520    14.0140    23.1290 c          1 A1B       0.565000
      9 O1          12.4770    13.8770    24.3020 o          1 A1B      -0.560000
     10 C12         13.1630    14.4900    22.1100 c6         1 A1B      -0.161400
     11 C11         12.5880    14.9260    20.7740 c6         1 A1B      -0.066400
     12 C9          11.5700    13.8890    20.3160 c6         1 A1B      -0.163700
     13 O           10.3720    15.2370    18.7390 o          1 A1B      -0.599100
     14 N           10.9060    13.7210    22.6940 n          1 A1B      -0.412800
     15 C1           8.7330    11.2290    24.5130 ca         1 A1B      -0.087000
     16 S            7.6790    12.3560    25.3680 ss         1 A1B      -0.169000
     17 C            6.4580    11.2930    26.1570 c3         1 A1B       0.020900
     18 C3           9.4550     9.0070    23.9080 ca         1 A1B      -0.098000
     19 C2           8.5920     9.8470    24.5990 ca         1 A1B      -0.119000
     20 H13         11.0670    13.5270    17.0170 hn         1 A1B       0.316000
     21 H12         11.9010    12.5370    18.1510 hn         1 A1B       0.316000
     22 H7          11.4010    11.3310    22.4310 ha         1 A1B       0.112000
     23 H9           8.9510    13.7260    23.3430 h1         1 A1B       0.078700
     24 H8          10.1390    13.6890    24.6250 h1         1 A1B       0.078700
     25 H11          9.7740    13.0080    21.1120 h1         1 A1B       0.059200
     26 H10          9.8290    14.7620    21.2350 h1         1 A1B       0.059200
     27 H17         13.8640    13.6640    21.9600 hc         1 A1B       0.073700
     28 H16         13.7370    15.2940    22.5730 hc         1 A1B       0.073700
     29 H15         13.3940    15.0340    20.0450 hc         1 A1B       0.061700
     30 H14         12.1020    15.9010    20.8610 hc         1 A1B       0.061700
     31 H           12.0540    12.9060    20.2970 hc         1 A1B       0.056700
     32 H3           5.7740    11.9630    26.6730 h1         1 A1B       0.066033
     33 H2           5.8960    10.7140    25.4270 h1         1 A1B       0.066033
     34 H1           6.9120    10.6300    26.8910 h1         1 A1B       0.066033
     35 H5           9.3290     7.9350    23.9850 ha         1 A1B       0.112000
     36 H4           7.8100     9.4060    25.2020 ha         1 A1B       0.113000
     37 H6          11.1450     8.8940    22.5880 ha         1 A1B       0.112000
@<TRIPOS>BOND
     1     1     7 1   
     2     1    20 1   
     3     1    21 1   
     4     2     3 ar  
     5     2    18 ar  
     6     2    37 1   
     7     3     4 ar  
     8     3    22 1   
     9     4     5 1   
    10     4    15 ar  
    11     5    14 1   
    12     5    23 1   
    13     5    24 1   
    14     6    12 1   
    15     6    14 1   
    16     6    25 1   
    17     6    26 1   
    18     7    12 1   
    19     7    13 2   
    20     8     9 2   
    21     8    10 1   
    22     8    14 1   
    23    10    11 1   
    24    10    27 1   
    25    10    28 1   
    26    11    12 1   
    27    11    29 1   
    28    11    30 1   
    29    12    31 1   
    30    15    16 1   
    31    15    19 ar  
    32    16    17 1   
    33    17    32 1   
    34    17    33 1   
    35    17    34 1   
    36    18    19 ar  
    37    18    35 1   
    38    19    36 1   
@<TRIPOS>SUBSTRUCTURE
     1 A1B         1 TEMP              0 ****  ****    0 ROOT
