@<TRIPOS>MOLECULE
A1B
   40    42     1     0     0
SMALL
abcg2


@<TRIPOS>ATOM
      1 N1          11.1470    16.0740    17.7070 na         1 A1B      -0.009200
      2 N3          10.2760    14.4960    18.7830 nc         1 A1B      -0.365000
      3 C4           6.9210    11.3010    26.7420 ca         1 A1B      -0.115000
      4 C5           7.1680    12.4250    25.9650 ca         1 A1B      -0.079000
      5 C6           7.9990    12.3720    24.8550 ca         1 A1B      -0.054300
      6 C7           8.2420    13.6000    24.0260 c3         1 A1B      -0.113100
      7 C10         11.9690    15.7400    21.9470 c5         1 A1B      -0.086400
      8 C13         11.6410    16.2130    18.9460 cd         1 A1B      -0.183000
      9 O           10.1140    14.2040    25.3750 o          1 A1B      -0.599100
     10 C3           7.5180    10.0980    26.4020 ca         1 A1B      -0.094000
     11 C2           8.3560    10.0200    25.2970 ca         1 A1B      -0.122000
     12 C1           8.6020    11.1490    24.5210 ca         1 A1B      -0.076000
     13 S            9.6660    11.1420    23.1140 ss         1 A1B      -0.176000
     14 C           10.2320     9.4370    23.0030 c3         1 A1B       0.021900
     15 N           10.2890    14.6770    23.1910 n          1 A1B      -0.411800
     16 C14          9.8980    14.6080    21.7920 c5         1 A1B       0.083000
     17 C11         11.2370    14.7430    21.0580 c5         1 A1B       0.155700
     18 O1          11.9630    13.5320    21.1260 oh         1 A1B      -0.642000
     19 C9          11.6060    15.2860    23.3560 c5         1 A1B       0.107000
     20 C12         11.0660    15.1810    19.6400 cc         1 A1B       0.171300
     21 N2          10.3310    15.0430    17.6190 nd         1 A1B      -0.190800
     22 H           11.3280    16.6460    16.8940 hn         1 A1B       0.381000
     23 H7           6.7020    13.3690    26.2220 ha         1 A1B       0.113000
     24 H9           8.0280    13.4010    22.9750 hc         1 A1B       0.068700
     25 H8           7.5400    14.3840    24.3250 hc         1 A1B       0.068700
     26 H12         11.5870    16.7460    21.7640 hc         1 A1B       0.059700
     27 H13         13.0440    15.7500    21.7710 hc         1 A1B       0.059700
     28 H15         12.3250    16.9980    19.2210 h4         1 A1B       0.173000
     29 H5           7.3380     9.2100    26.9940 ha         1 A1B       0.111000
     30 H4           8.8100     9.0700    25.0530 ha         1 A1B       0.112000
     31 H2          10.9000     9.4030    22.1440 h1         1 A1B       0.065367
     32 H1          10.7900     9.1380    23.8880 h1         1 A1B       0.065367
     33 H3           9.4080     8.7470    22.8290 h1         1 A1B       0.065367
     34 H16          9.2220    15.4250    21.5230 h1         1 A1B       0.061700
     35 H17          9.4060    13.6680    21.5400 h1         1 A1B       0.061700
     36 H14         11.4590    12.8410    20.6820 ho         1 A1B       0.458000
     37 H10         11.5720    16.1200    24.0580 h1         1 A1B       0.061700
     38 H11         12.3200    14.5560    23.7440 h1         1 A1B       0.061700
     39 C8           9.6370    14.1690    24.2480 c          1 A1B       0.614100
     40 H6           6.2690    11.3680    27.6030 ha         1 A1B       0.115000
@<TRIPOS>BOND
     1     1     8 1   
     2     1    21 1   
     3     1    22 1   
     4     2    20 1   
     5     2    21 2   
     6     3     4 ar  
     7     3    10 ar  
     8     3    40 1   
     9     4     5 ar  
    10     4    23 1   
    11     5     6 1   
    12     5    12 ar  
    13     6    24 1   
    14     6    25 1   
    15     6    39 1   
    16     7    17 1   
    17     7    19 1   
    18     7    26 1   
    19     7    27 1   
    20     8    20 2   
    21     8    28 1   
    22     9    39 2   
    23    10    11 ar  
    24    10    29 1   
    25    11    12 ar  
    26    11    30 1   
    27    12    13 1   
    28    13    14 1   
    29    14    31 1   
    30    14    32 1   
    31    14    33 1   
    32    15    16 1   
    33    15    19 1   
    34    15    39 1   
    35    16    17 1   
    36    16    34 1   
    37    16    35 1   
    38    17    18 1   
    39    17    20 1   
    40    18    36 1   
    41    19    37 1   
    42    19    38 1   
@<TRIPOS>SUBSTRUCTURE
     1 A1B         1 TEMP              0 ****  ****    0 ROOT
