@<TRIPOS>MOLECULE
A1B
   34    35     1     0     0
SMALL
abcg2


@<TRIPOS>ATOM
      1 N1           8.9100    15.6130    21.9250 n          1 A1B      -0.414800
      2 C4           9.8890    16.4190    22.6350 c6         1 A1B       0.102000
      3 C5           8.1790    14.5950    22.4370 c          1 A1B       0.607100
      4 C6           8.3200    14.3020    23.9270 c5         1 A1B      -0.145700
      5 C7           9.5760    13.4620    24.2050 c5         1 A1B      -0.077400
      6 C8           9.2790    12.0460    23.7340 c5         1 A1B       0.065600
      7 C10          8.8320    15.9310    20.5120 c6         1 A1B       0.100000
      8 O1           7.4330    13.9220    21.7390 o          1 A1B      -0.586100
      9 C9           7.1430    13.4810    24.4550 c5         1 A1B       0.083600
     10 S            7.5630    11.7120    24.2480 ss         1 A1B      -0.437000
     11 C3          11.2750    16.2420    22.0260 c6         1 A1B      -0.098400
     12 C2          11.2620    16.5300    20.5300 c6         1 A1B      -0.067400
     13 C1          10.1840    15.6950    19.8340 c6         1 A1B      -0.166700
     14 C           10.0990    16.0570    18.3640 c          1 A1B       0.609100
     15 O            9.7030    17.1550    17.9980 o          1 A1B      -0.606100
     16 N           10.4950    15.1020    17.5100 nt         1 A1B      -0.605000
     17 H8           9.9090    16.1720    23.6920 h1         1 A1B       0.050700
     18 H9           9.5880    17.4700    22.5610 h1         1 A1B       0.050700
     19 H1           8.3580    15.2340    24.4940 hc         1 A1B       0.073700
     20 H11         10.4700    13.8520    23.7180 hc         1 A1B       0.058200
     21 H10          9.7640    13.4610    25.2800 hc         1 A1B       0.058200
     22 H13          9.3730    11.9520    22.6520 h1         1 A1B       0.072200
     23 H12          9.9430    11.3170    24.1960 h1         1 A1B       0.072200
     24 H17          8.0540    15.3300    20.0490 h1         1 A1B       0.076200
     25 H16          8.5470    16.9830    20.4070 h1         1 A1B       0.076200
     26 H15          6.2100    13.7020    23.9410 h1         1 A1B       0.076200
     27 H14          7.0030    13.6860    25.5160 h1         1 A1B       0.076200
     28 H7          11.6230    15.2200    22.2040 hc         1 A1B       0.048700
     29 H6          11.9740    16.9100    22.5330 hc         1 A1B       0.048700
     30 H5          12.2430    16.3230    20.0970 hc         1 A1B       0.055700
     31 H4          11.0560    17.5920    20.3660 hc         1 A1B       0.055700
     32 H           10.4360    14.6350    19.9430 hc         1 A1B       0.058700
     33 H2          10.4870    15.2690    16.5170 hn         1 A1B       0.315000
     34 H3          10.8130    14.2030    17.8280 hn         1 A1B       0.315000
@<TRIPOS>BOND
     1     1     2 1   
     2     1     3 1   
     3     1     7 1   
     4     2    11 1   
     5     2    17 1   
     6     2    18 1   
     7     3     4 1   
     8     3     8 2   
     9     4     5 1   
    10     4     9 1   
    11     4    19 1   
    12     5     6 1   
    13     5    20 1   
    14     5    21 1   
    15     6    10 1   
    16     6    22 1   
    17     6    23 1   
    18     7    13 1   
    19     7    24 1   
    20     7    25 1   
    21     9    10 1   
    22     9    26 1   
    23     9    27 1   
    24    11    12 1   
    25    11    28 1   
    26    11    29 1   
    27    12    13 1   
    28    12    30 1   
    29    12    31 1   
    30    13    14 1   
    31    13    32 1   
    32    14    15 2   
    33    14    16 1   
    34    16    33 1   
    35    16    34 1   
@<TRIPOS>SUBSTRUCTURE
     1 A1B         1 TEMP              0 ****  ****    0 ROOT
