@<TRIPOS>MOLECULE
A1B
   40    41     1     0     0
SMALL
abcg2


@<TRIPOS>ATOM
      1 N1           9.4870    15.8970    22.1290 n          1 A1B      -0.401800
      2 C4           6.3730    12.5140    25.9930 ca         1 A1B      -0.091000
      3 C5           7.1320    13.5710    25.5090 ca         1 A1B      -0.114000
      4 C6           8.1330    13.3800    24.5640 ca         1 A1B      -0.014300
      5 C7           8.9340    14.5680    24.1120 c3         1 A1B      -0.117100
      6 C8           8.7910    14.8480    22.6230 c          1 A1B       0.615100
      7 C10         11.9060    16.1400    22.3220 c6         1 A1B      -0.106400
      8 C13         10.8600    15.9650    18.6120 c          1 A1B       0.608100
      9 O2          10.6310    17.0900    18.1870 o          1 A1B      -0.610100
     10 N2          11.1730    14.9330    17.8150 nt         1 A1B      -0.606000
     11 C12         10.8210    15.6560    20.0960 c6         1 A1B      -0.172700
     12 C11         12.0020    16.3230    20.8110 c6         1 A1B      -0.065400
     13 C9          10.5460    16.5970    22.8360 c6         1 A1B       0.098000
     14 C14          9.5030    16.1520    20.7010 c6         1 A1B       0.100000
     15 O1           8.0500    14.1710    21.9260 o          1 A1B      -0.611100
     16 C1           8.3510    12.0830    24.0790 ca         1 A1B      -0.123600
     17 C            9.4260    11.8030    23.0740 c          1 A1B       0.628700
     18 O           10.5400    12.3030    23.1570 o          1 A1B      -0.626100
     19 N            9.0940    10.9300    22.1090 nt         1 A1B      -0.593000
     20 C3           6.6040    11.2320    25.5230 ca         1 A1B      -0.115000
     21 C2           7.5860    11.0250    24.5650 ca         1 A1B      -0.090000
     22 H6           6.9430    14.5720    25.8780 ha         1 A1B       0.113000
     23 H7           8.6090    15.4500    24.6700 hc         1 A1B       0.077200
     24 H8           9.9860    14.4240    24.3610 hc         1 A1B       0.077200
     25 H11         12.6940    16.7090    22.8190 hc         1 A1B       0.056700
     26 H12         12.0530    15.0890    22.5840 hc         1 A1B       0.056700
     27 H16         11.2410    15.0580    16.8180 hn         1 A1B       0.314000
     28 H15         11.3520    14.0140    18.1810 hn         1 A1B       0.314000
     29 H           10.8800    14.5730    20.2520 hc         1 A1B       0.065700
     30 H13         12.0030    17.3920    20.5750 hc         1 A1B       0.052200
     31 H14         12.9450    15.9140    20.4400 hc         1 A1B       0.052200
     32 H9          10.4210    17.6690    22.6590 h1         1 A1B       0.052700
     33 H10         10.4610    16.4480    23.9090 h1         1 A1B       0.052700
     34 H17          9.4070    17.2290    20.5430 h1         1 A1B       0.075200
     35 H18          8.6480    15.6710    20.2330 h1         1 A1B       0.075200
     36 H2           9.7610    10.7140    21.3850 hn         1 A1B       0.313500
     37 H1           8.1420    10.6460    21.9530 hn         1 A1B       0.313500
     38 H4           6.0270    10.3960    25.8960 ha         1 A1B       0.116000
     39 H3           7.7670    10.0190    24.2070 ha         1 A1B       0.114000
     40 H5           5.6060    12.6960    26.7350 ha         1 A1B       0.116000
@<TRIPOS>BOND
     1     1     6 1   
     2     1    13 1   
     3     1    14 1   
     4     2     3 ar  
     5     2    20 ar  
     6     2    40 1   
     7     3     4 ar  
     8     3    22 1   
     9     4     5 1   
    10     4    16 ar  
    11     5     6 1   
    12     5    23 1   
    13     5    24 1   
    14     6    15 2   
    15     7    12 1   
    16     7    13 1   
    17     7    25 1   
    18     7    26 1   
    19     8     9 2   
    20     8    10 1   
    21     8    11 1   
    22    10    27 1   
    23    10    28 1   
    24    11    12 1   
    25    11    14 1   
    26    11    29 1   
    27    12    30 1   
    28    12    31 1   
    29    13    32 1   
    30    13    33 1   
    31    14    34 1   
    32    14    35 1   
    33    16    17 1   
    34    16    21 ar  
    35    17    18 2   
    36    17    19 1   
    37    19    36 1   
    38    19    37 1   
    39    20    21 ar  
    40    20    38 1   
    41    21    39 1   
@<TRIPOS>SUBSTRUCTURE
     1 A1B         1 TEMP              0 ****  ****    0 ROOT
