@<TRIPOS>MOLECULE
A1B
   41    42     1     0     0
SMALL
abcg2


@<TRIPOS>ATOM
      1 N1           9.3610    15.3080    17.4860 n8         1 A1B      -1.007100
      2 C4           5.2130    12.4420    24.9290 ca         1 A1B      -0.114000
      3 C5           6.0130    13.5340    24.6190 ca         1 A1B      -0.083000
      4 C6           7.2640    13.3760    24.0380 ca         1 A1B      -0.054300
      5 C7           8.1090    14.5760    23.7390 c3         1 A1B      -0.114100
      6 C8           8.0760    14.9560    22.2620 c          1 A1B       0.609100
      7 C10         11.3330    15.9790    22.2420 c6         1 A1B      -0.096400
      8 C13          9.0540    16.2610    20.4590 c6         1 A1B       0.121000
      9 O2          11.9110    15.5950    17.7900 o          1 A1B      -0.541500
     10 S1          10.6140    16.1150    18.2050 s6         1 A1B       1.155100
     11 O1          10.3500    17.5360    18.0120 o          1 A1B      -0.541500
     12 C12         10.3800    15.6980    19.9390 c6         1 A1B      -0.303700
     13 C11         11.5630    16.2240    20.7520 c6         1 A1B      -0.053400
     14 C9           9.9780    16.5170    22.6800 c6         1 A1B       0.101000
     15 N            8.9270    15.9310    21.8640 n          1 A1B      -0.406800
     16 O            7.2900    14.4230    21.4950 o          1 A1B      -0.582100
     17 C1           7.7200    12.0780    23.7610 ca         1 A1B      -0.069000
     18 S            9.3130    11.9270    23.0170 ss         1 A1B      -0.179000
     19 C            9.6040    10.1500    22.9760 c3         1 A1B       0.022900
     20 C3           5.6730    11.1650    24.6530 ca         1 A1B      -0.093000
     21 C2           6.9200    10.9820    24.0710 ca         1 A1B      -0.121000
     22 H16          9.0370    15.7850    16.6510 hn         1 A1B       0.480000
     23 H17          9.5730    14.3360    17.2900 hn         1 A1B       0.480000
     24 H7           5.6630    14.5360    24.8380 ha         1 A1B       0.112000
     25 H8           7.7560    15.4310    24.3230 hc         1 A1B       0.070200
     26 H9           9.1390    14.4020    24.0650 hc         1 A1B       0.070200
     27 H12         12.1250    16.4620    22.8160 hc         1 A1B       0.053700
     28 H13         11.3830    14.9080    22.4590 hc         1 A1B       0.053700
     29 H18          9.0450    17.3490    20.3550 h1         1 A1B       0.081200
     30 H19          8.2090    15.8600    19.9080 h1         1 A1B       0.081200
     31 H           10.3530    14.6030    19.9760 h1         1 A1B       0.105700
     32 H14         11.6740    17.2990    20.5800 hc         1 A1B       0.060700
     33 H15         12.4890    15.7450    20.4350 hc         1 A1B       0.060700
     34 H10          9.9450    17.6020    22.5470 h1         1 A1B       0.053200
     35 H11          9.8040    16.3300    23.7350 h1         1 A1B       0.053200
     36 H2          10.6050    10.0240    22.5670 h1         1 A1B       0.065367
     37 H1           9.5770     9.7150    23.9730 h1         1 A1B       0.065367
     38 H3           8.8980     9.6370    22.3260 h1         1 A1B       0.065367
     39 H5           5.0660    10.3010    24.8900 ha         1 A1B       0.112000
     40 H4           7.2550     9.9750    23.8640 ha         1 A1B       0.112000
     41 H6           4.2420    12.5910    25.3840 ha         1 A1B       0.116000
@<TRIPOS>BOND
     1     1    10 1   
     2     1    22 1   
     3     1    23 1   
     4     2     3 ar  
     5     2    20 ar  
     6     2    41 1   
     7     3     4 ar  
     8     3    24 1   
     9     4     5 1   
    10     4    17 ar  
    11     5     6 1   
    12     5    25 1   
    13     5    26 1   
    14     6    15 1   
    15     6    16 2   
    16     7    13 1   
    17     7    14 1   
    18     7    27 1   
    19     7    28 1   
    20     8    12 1   
    21     8    15 1   
    22     8    29 1   
    23     8    30 1   
    24     9    10 2   
    25    10    11 2   
    26    10    12 1   
    27    12    13 1   
    28    12    31 1   
    29    13    32 1   
    30    13    33 1   
    31    14    15 1   
    32    14    34 1   
    33    14    35 1   
    34    17    18 1   
    35    17    21 ar  
    36    18    19 1   
    37    19    36 1   
    38    19    37 1   
    39    19    38 1   
    40    20    21 ar  
    41    20    39 1   
    42    21    40 1   
@<TRIPOS>SUBSTRUCTURE
     1 A1B         1 TEMP              0 ****  ****    0 ROOT
