@<TRIPOS>MOLECULE
A1B
   43    44     1     0     0
SMALL
abcg2


@<TRIPOS>ATOM
      1 C4           7.5060    10.1440    26.5210 ca         1 A1B      -0.114000
      2 C5           8.2710    11.2710    26.2460 ca         1 A1B      -0.083000
      3 C6           9.2770    11.2520    25.2910 ca         1 A1B      -0.052300
      4 C7          10.0940    12.4800    25.0250 c3         1 A1B      -0.116100
      5 C8           9.6910    13.1660    23.7210 c          1 A1B       0.608100
      6 C10         12.9190    13.8020    22.8870 c6         1 A1B      -0.103400
      7 C13         11.1140    14.6730    19.5390 c3         1 A1B      -0.077400
      8 C15         10.3280    14.6600    21.9110 c6         1 A1B       0.094000
      9 O            8.6360    12.8810    23.1730 o          1 A1B      -0.585100
     10 N           10.5280    14.1100    23.2400 n          1 A1B      -0.405800
     11 C12         11.3360    14.0680    20.9220 c6         1 A1B      -0.088700
     12 O1          11.5650    14.5550    17.2050 oh         1 A1B      -0.663000
     13 C11         12.7600    14.2740    21.4440 c6         1 A1B      -0.071400
     14 C9          11.8450    14.4140    23.7740 c6         1 A1B       0.098000
     15 C1           9.5230    10.0580    24.5940 ca         1 A1B      -0.070000
     16 S           10.8110    10.0840    23.3900 ss         1 A1B      -0.177000
     17 C           10.8620     8.3940    22.7720 c3         1 A1B       0.021900
     18 C3           7.7560     8.9720    25.8260 ca         1 A1B      -0.094000
     19 C2           8.7600     8.9270    24.8670 ca         1 A1B      -0.122000
     20 H6           6.7270    10.1850    27.2700 ha         1 A1B       0.115000
     21 H7           8.0830    12.1910    26.7880 ha         1 A1B       0.111000
     22 H8           9.9640    13.1940    25.8430 hc         1 A1B       0.069200
     23 H9          11.1570    12.2250    25.0190 hc         1 A1B       0.069200
     24 H12         13.9070    14.0710    23.2680 hc         1 A1B       0.050200
     25 H13         12.8430    12.7110    22.9380 hc         1 A1B       0.050200
     26 H17         10.0620    14.5450    19.2610 hc         1 A1B       0.054700
     27 H16         11.3000    15.7520    19.5770 hc         1 A1B       0.054700
     28 H21         10.4550    15.7470    21.9620 h1         1 A1B       0.062700
     29 H22          9.3090    14.4660    21.5840 h1         1 A1B       0.062700
     30 H           11.1400    12.9890    20.8650 hc         1 A1B       0.062700
     31 H18         13.0330    14.2620    18.6420 h1         1 A1B       0.016200
     32 H19         11.8620    12.9520    18.5010 h1         1 A1B       0.016200
     33 H20         12.1450    14.1920    16.5300 ho         1 A1B       0.442000
     34 H14         13.0060    15.3420    21.3850 hc         1 A1B       0.040200
     35 H15         13.4810    13.7550    20.8090 hc         1 A1B       0.040200
     36 H11         11.9550    15.5030    23.7920 h1         1 A1B       0.049200
     37 H10         11.9390    14.0820    24.8050 h1         1 A1B       0.049200
     38 H2          11.6620     8.3730    22.0350 h1         1 A1B       0.064700
     39 H1          11.0960     7.6810    23.5610 h1         1 A1B       0.064700
     40 H3           9.9310     8.1150    22.2820 h1         1 A1B       0.064700
     41 H5           7.1730     8.0820    26.0250 ha         1 A1B       0.112000
     42 H4           8.9350     7.9990    24.3410 ha         1 A1B       0.112000
     43 C14         11.9730    14.0450    18.4570 c3         1 A1B       0.164600
@<TRIPOS>BOND
     1     1     2 ar  
     2     1    18 ar  
     3     1    20 1   
     4     2     3 ar  
     5     2    21 1   
     6     3     4 1   
     7     3    15 ar  
     8     4     5 1   
     9     4    22 1   
    10     4    23 1   
    11     5     9 2   
    12     5    10 1   
    13     6    13 1   
    14     6    14 1   
    15     6    24 1   
    16     6    25 1   
    17     7    11 1   
    18     7    26 1   
    19     7    27 1   
    20     7    43 1   
    21     8    10 1   
    22     8    11 1   
    23     8    28 1   
    24     8    29 1   
    25    10    14 1   
    26    11    13 1   
    27    11    30 1   
    28    12    33 1   
    29    12    43 1   
    30    13    34 1   
    31    13    35 1   
    32    14    36 1   
    33    14    37 1   
    34    15    16 1   
    35    15    19 ar  
    36    16    17 1   
    37    17    38 1   
    38    17    39 1   
    39    17    40 1   
    40    18    19 ar  
    41    18    41 1   
    42    19    42 1   
    43    31    43 1   
    44    32    43 1   
@<TRIPOS>SUBSTRUCTURE
     1 A1B         1 TEMP              0 ****  ****    0 ROOT
