@<TRIPOS>MOLECULE
A1B
   38    39     1     0     0
SMALL
abcg2


@<TRIPOS>ATOM
      1 N1           8.5230    16.1690    21.1760 n          1 A1B      -0.402800
      2 C4           9.6230    16.6380    22.0030 c6         1 A1B       0.105000
      3 C5           7.6030    15.2330    21.4950 c          1 A1B       0.612100
      4 C6           7.4820    14.7450    22.9290 c3         1 A1B      -0.145400
      5 C7           7.5920    13.2240    23.0100 c6         1 A1B       0.096300
      6 C8           7.2410    12.7320    24.4040 c6         1 A1B       0.055600
      7 C10          9.2280    10.9690    22.6740 c6         1 A1B       0.069600
      8 O1           6.8200    14.7830    20.6670 o          1 A1B      -0.606100
      9 C3          10.9570    16.1500    21.4490 c6         1 A1B      -0.102400
     10 C2          11.1230    16.5310    19.9830 c6         1 A1B      -0.067400
     11 C11          8.6300    16.6280    19.8000 c6         1 A1B       0.102000
     12 C1           9.9070    16.0760    19.1660 c6         1 A1B      -0.171700
     13 C           10.0440    16.5420    17.7300 c          1 A1B       0.610100
     14 O            9.7060    17.6640    17.3800 o          1 A1B      -0.607100
     15 N           10.5870    15.6470    16.8900 nt         1 A1B      -0.607000
     16 S1           9.2990    12.7770    22.5470 ss         1 A1B      -0.464000
     17 C9           8.8530    10.4900    24.0620 c6         1 A1B       0.055600
     18 S            7.1580    10.9260    24.5310 ss         1 A1B      -0.422000
     19 H9           9.5050    16.3190    23.0330 h1         1 A1B       0.050700
     20 H8           9.6030    17.7320    22.0070 h1         1 A1B       0.050700
     21 H10          8.1770    15.1980    23.6330 hc         1 A1B       0.070700
     22 H11          6.4790    15.0270    23.2640 hc         1 A1B       0.070700
     23 H1           6.9080    12.7720    22.2890 h1         1 A1B       0.105700
     24 H12          7.9410    13.1270    25.1430 h1         1 A1B       0.079700
     25 H13          6.2410    13.0820    24.6710 h1         1 A1B       0.079700
     26 H16         10.2320    10.6240    22.4200 h1         1 A1B       0.081200
     27 H17          8.5400    10.5720    21.9270 h1         1 A1B       0.081200
     28 H7          11.0170    15.0640    21.5610 hc         1 A1B       0.055200
     29 H6          11.7660    16.5800    22.0430 hc         1 A1B       0.055200
     30 H5          12.0380    16.0920    19.5810 hc         1 A1B       0.050200
     31 H4          11.2230    17.6180    19.8960 hc         1 A1B       0.050200
     32 H19          7.7480    16.3220    19.2450 h1         1 A1B       0.077700
     33 H18          8.6600    17.7210    19.8030 h1         1 A1B       0.077700
     34 H            9.8580    14.9820    19.1950 hc         1 A1B       0.068700
     35 H2          10.7740    15.8950    15.9320 hn         1 A1B       0.314000
     36 H3          10.8630    14.7300    17.1950 hn         1 A1B       0.314000
     37 H14          9.5540    10.8750    24.8050 h1         1 A1B       0.079200
     38 H15          8.8940     9.3990    24.1010 h1         1 A1B       0.079200
@<TRIPOS>BOND
     1     1     2 1   
     2     1     3 1   
     3     1    11 1   
     4     2     9 1   
     5     2    19 1   
     6     2    20 1   
     7     3     4 1   
     8     3     8 2   
     9     4     5 1   
    10     4    21 1   
    11     4    22 1   
    12     5     6 1   
    13     5    16 1   
    14     5    23 1   
    15     6    18 1   
    16     6    24 1   
    17     6    25 1   
    18     7    16 1   
    19     7    17 1   
    20     7    26 1   
    21     7    27 1   
    22     9    10 1   
    23     9    28 1   
    24     9    29 1   
    25    10    12 1   
    26    10    30 1   
    27    10    31 1   
    28    11    12 1   
    29    11    32 1   
    30    11    33 1   
    31    12    13 1   
    32    12    34 1   
    33    13    14 2   
    34    13    15 1   
    35    15    35 1   
    36    15    36 1   
    37    17    18 1   
    38    17    37 1   
    39    17    38 1   
@<TRIPOS>SUBSTRUCTURE
     1 A1B         1 TEMP              0 ****  ****    0 ROOT
