@<TRIPOS>MOLECULE
A1B
   39    41     1     0     0
SMALL
abcg2


@<TRIPOS>ATOM
      1 N1           9.3820     9.1800    23.6580 nc         1 A1B      -0.518100
      2 N3          11.8850    14.1200    17.8300 nt         1 A1B      -0.605000
      3 C4           8.8040    13.5920    24.6370 ca         1 A1B      -0.148000
      4 C5           9.8940    13.7030    23.7390 ca         1 A1B      -0.058300
      5 C6          10.4210    15.0900    23.4500 c3         1 A1B       0.137300
      6 C7          11.0760    15.2210    21.0940 c6         1 A1B       0.116000
      7 C8          12.1720    14.8110    20.1270 c6         1 A1B      -0.163700
      8 C10         13.4510    15.5540    20.4970 c6         1 A1B      -0.066400
      9 C13         10.4400    12.5810    23.1590 ca         1 A1B      -0.120000
     10 C12         12.7750    15.0880    22.9230 c          1 A1B       0.565000
     11 C11         13.8770    15.1220    21.8880 c6         1 A1B      -0.161400
     12 C9          11.7610    15.1310    18.7000 c          1 A1B       0.608100
     13 O           11.3710    16.2450    18.3810 o          1 A1B      -0.598100
     14 N2          11.4960    15.1260    22.4860 n          1 A1B      -0.414800
     15 C3           8.2550    12.3780    24.9680 ca         1 A1B      -0.029000
     16 C14          9.8740    11.3450    23.4940 ca         1 A1B      -0.038200
     17 N           10.1810    10.0900    23.0900 na         1 A1B       0.072600
     18 C           11.2230     9.7050    22.1720 c3         1 A1B       0.081900
     19 C2           8.7960    11.2230    24.3860 ca         1 A1B      -0.232900
     20 C1           8.5490     9.8260    24.4350 cd         1 A1B       0.357800
     21 H12         11.6770    14.2570    16.8540 hn         1 A1B       0.316000
     22 H11         12.2150    13.2130    18.1110 hn         1 A1B       0.316000
     23 H6           8.3990    14.4980    25.0740 ha         1 A1B       0.113000
     24 H8           9.6030    15.7100    23.0710 h1         1 A1B       0.070200
     25 H7          10.7480    15.5560    24.3790 h1         1 A1B       0.070200
     26 H10         10.2060    14.5730    20.9620 h1         1 A1B       0.060200
     27 H9          10.7530    16.2450    20.8820 h1         1 A1B       0.060200
     28 H           12.3490    13.7350    20.2320 hc         1 A1B       0.054700
     29 H14         14.2500    15.3420    19.7850 hc         1 A1B       0.062700
     30 H13         13.2690    16.6310    20.4650 hc         1 A1B       0.062700
     31 H17         11.2740    12.6460    22.4720 ha         1 A1B       0.117000
     32 H16         14.2950    14.1110    21.8500 hc         1 A1B       0.073700
     33 H15         14.6700    15.7640    22.2750 hc         1 A1B       0.073700
     34 H5           7.4250    12.3170    25.6610 ha         1 A1B       0.119000
     35 H2          11.1650     8.6320    22.0180 h1         1 A1B       0.051700
     36 H3          11.0990    10.2070    21.2130 h1         1 A1B       0.051700
     37 H1          12.2070     9.9520    22.5720 h1         1 A1B       0.051700
     38 H4           7.8010     9.2930    25.0030 h4         1 A1B       0.050800
     39 O1          13.0490    14.9980    24.1130 o          1 A1B      -0.559000
@<TRIPOS>BOND
     1     1    17 1   
     2     1    20 2   
     3     2    12 1   
     4     2    21 1   
     5     2    22 1   
     6     3     4 ar  
     7     3    15 ar  
     8     3    23 1   
     9     4     5 1   
    10     4     9 ar  
    11     5    14 1   
    12     5    24 1   
    13     5    25 1   
    14     6     7 1   
    15     6    14 1   
    16     6    26 1   
    17     6    27 1   
    18     7     8 1   
    19     7    12 1   
    20     7    28 1   
    21     8    11 1   
    22     8    29 1   
    23     8    30 1   
    24     9    16 ar  
    25     9    31 1   
    26    10    11 1   
    27    10    14 1   
    28    10    39 2   
    29    11    32 1   
    30    11    33 1   
    31    12    13 2   
    32    15    19 ar  
    33    15    34 1   
    34    16    17 1   
    35    16    19 ar  
    36    17    18 1   
    37    18    35 1   
    38    18    36 1   
    39    18    37 1   
    40    19    20 1   
    41    20    38 1   
@<TRIPOS>SUBSTRUCTURE
     1 A1B         1 TEMP              0 ****  ****    0 ROOT
