@<TRIPOS>MOLECULE
A1B
   39    40     1     0     0
SMALL
abcg2


@<TRIPOS>ATOM
      1 C4           5.5180    12.5360    25.0310 ca         1 A1B      -0.114000
      2 C5           6.3090    13.6340    24.7180 ca         1 A1B      -0.083000
      3 C6           7.4360    13.5120    23.9170 ca         1 A1B      -0.052300
      4 C7           8.2840    14.7110    23.6140 c3         1 A1B      -0.116100
      5 C8           8.1090    15.1910    22.1760 c          1 A1B       0.608100
      6 C10         11.4530    15.6800    21.8180 c6         1 A1B      -0.103400
      7 C12         10.2300    15.5780    19.6090 c6         1 A1B      -0.124700
      8 C11         11.5540    15.8890    20.3100 c6         1 A1B      -0.068400
      9 C9          10.2570    16.4360    22.3810 c6         1 A1B       0.098000
     10 C14          9.0810    16.3450    20.2700 c6         1 A1B       0.096000
     11 N            9.0410    16.0410    21.6900 n          1 A1B      -0.406800
     12 O            7.1430    14.8340    21.5190 o          1 A1B      -0.586100
     13 C1           7.7750    12.2450    23.4180 ca         1 A1B      -0.070000
     14 S            9.2100    12.1410    22.3960 ss         1 A1B      -0.180000
     15 C            9.3740    10.3810    22.0550 c3         1 A1B       0.021900
     16 C3           5.8620    11.2900    24.5350 ca         1 A1B      -0.094000
     17 C2           6.9850    11.1420    23.7310 ca         1 A1B      -0.121000
     18 H6           4.6450    12.6570    25.6590 ha         1 A1B       0.115000
     19 H7           6.0500    14.6110    25.1070 ha         1 A1B       0.112000
     20 H8           8.0160    15.5320    24.2860 hc         1 A1B       0.069700
     21 H9           9.3320    14.4820    23.8280 hc         1 A1B       0.069700
     22 H12         12.3670    16.0210    22.3110 hc         1 A1B       0.051200
     23 H13         11.3430    14.6160    22.0470 hc         1 A1B       0.051200
     24 H           10.0180    14.5070    19.7230 hc         1 A1B       0.068700
     25 H14         11.8360    16.9280    20.1150 hc         1 A1B       0.047200
     26 H15         12.3490    15.2650    19.8950 hc         1 A1B       0.047200
     27 H10         10.3920    17.5110    22.2280 h1         1 A1B       0.050700
     28 H11         10.1600    16.2930    23.4540 h1         1 A1B       0.050700
     29 H18          9.2240    17.4230    20.1510 h1         1 A1B       0.069200
     30 H19          8.1270    16.0860    19.8150 h1         1 A1B       0.069200
     31 H2          10.2740    10.2800    21.4500 h1         1 A1B       0.065033
     32 H1           9.5020     9.8040    22.9680 h1         1 A1B       0.065033
     33 H3           8.5290     9.9990    21.4860 h1         1 A1B       0.065033
     34 H5           5.2600    10.4210    24.7690 ha         1 A1B       0.112000
     35 H4           7.2320    10.1590    23.3560 ha         1 A1B       0.112000
     36 C13         10.2850    15.8190    18.1190 c3         1 A1B       0.189600
     37 H16         11.0920    15.2410    17.6640 h1         1 A1B       0.045700
     38 F           10.5150    17.1680    17.8400 f          1 A1B      -0.276000
     39 H17          9.3420    15.5400    17.6420 h1         1 A1B       0.045700
@<TRIPOS>BOND
     1     1     2 ar  
     2     1    16 ar  
     3     1    18 1   
     4     2     3 ar  
     5     2    19 1   
     6     3     4 1   
     7     3    13 ar  
     8     4     5 1   
     9     4    20 1   
    10     4    21 1   
    11     5    11 1   
    12     5    12 2   
    13     6     8 1   
    14     6     9 1   
    15     6    22 1   
    16     6    23 1   
    17     7     8 1   
    18     7    10 1   
    19     7    24 1   
    20     7    36 1   
    21     8    25 1   
    22     8    26 1   
    23     9    11 1   
    24     9    27 1   
    25     9    28 1   
    26    10    11 1   
    27    10    29 1   
    28    10    30 1   
    29    13    14 1   
    30    13    17 ar  
    31    14    15 1   
    32    15    31 1   
    33    15    32 1   
    34    15    33 1   
    35    16    17 ar  
    36    16    34 1   
    37    17    35 1   
    38    36    37 1   
    39    36    38 1   
    40    36    39 1   
@<TRIPOS>SUBSTRUCTURE
     1 A1B         1 TEMP              0 ****  ****    0 ROOT
