@<TRIPOS>MOLECULE
A1B
   40    42     1     0     0
SMALL
abcg2


@<TRIPOS>ATOM
      1 N1           2.2870    16.8820    24.1510 nb         1 A1B      -0.698000
      2 C4           6.1930    11.5100    26.0080 ca         1 A1B      -0.106000
      3 C5           6.4160    12.7530    25.4380 ca         1 A1B      -0.102000
      4 C6           7.2180    12.9070    24.3100 ca         1 A1B      -0.053300
      5 C7           7.4310    14.2890    23.7600 c3         1 A1B      -0.114100
      6 C8           6.4620    14.5770    22.6250 c          1 A1B       0.608100
      7 C10          4.6760    16.7170    24.4100 c6         1 A1B      -0.158700
      8 C13          1.1720    16.6150    22.0550 ca         1 A1B      -0.204000
      9 C15          3.5600    16.3700    22.1800 ca         1 A1B      -0.247300
     10 O            6.2420    13.7070    21.7960 o          1 A1B      -0.581100
     11 C3           6.7830    10.3880    25.4430 ca         1 A1B      -0.101000
     12 C2           7.5720    10.5170    24.3120 ca         1 A1B      -0.106000
     13 C1           7.7980    11.7680    23.7380 ca         1 A1B      -0.075000
     14 S            8.7800    11.9340    22.2750 ss         1 A1B      -0.151000
     15 C           10.0930    10.7220    22.5570 c3         1 A1B       0.012900
     16 N            5.9100    15.8120    22.5390 n          1 A1B      -0.403800
     17 C16          4.8980    16.0760    21.5390 c6         1 A1B       0.138300
     18 C11          3.4480    16.6520    23.5430 ca         1 A1B       0.394300
     19 C9           5.9320    16.8340    23.5680 c6         1 A1B       0.099000
     20 C14          2.3860    16.3770    21.4190 ca         1 A1B       0.191100
     21 O1           2.3510    16.1550    20.0990 oh         1 A1B      -0.529100
     22 C12          1.1840    16.8530    23.4150 ca         1 A1B       0.372900
     23 H6           5.9700    13.6350    25.8850 ha         1 A1B       0.108000
     24 H7           7.3780    15.0050    24.5750 hc         1 A1B       0.074200
     25 H8           8.4360    14.3740    23.3340 hc         1 A1B       0.074200
     26 H12          4.7310    15.8220    25.0390 hc         1 A1B       0.071200
     27 H11          4.5890    17.5700    25.0850 hc         1 A1B       0.071200
     28 H14          0.2450    16.6140    21.4980 ha         1 A1B       0.140000
     29 H4           6.6240     9.4090    25.8750 ha         1 A1B       0.114000
     30 H3           8.0120     9.6300    23.8740 ha         1 A1B       0.116000
     31 H1          10.8600    10.9230    21.8110 h1         1 A1B       0.061700
     32 H           10.5260    10.8370    23.5480 h1         1 A1B       0.061700
     33 H2           9.7480     9.6980    22.4230 h1         1 A1B       0.061700
     34 H17          4.8340    15.2070    20.8840 h1         1 A1B       0.066700
     35 H16          5.2180    16.9230    20.9210 h1         1 A1B       0.066700
     36 H9           6.8320    16.7800    24.1740 h1         1 A1B       0.057700
     37 H10          5.9620    17.8050    23.0670 h1         1 A1B       0.057700
     38 H15          3.2280    16.0700    19.7100 ho         1 A1B       0.476000
     39 H13          0.2500    17.0390    23.9340 h4         1 A1B       0.021100
     40 H5           5.5670    11.4190    26.8860 ha         1 A1B       0.116000
@<TRIPOS>BOND
     1     1    18 ar  
     2     1    22 ar  
     3     2     3 ar  
     4     2    11 ar  
     5     2    40 1   
     6     3     4 ar  
     7     3    23 1   
     8     4     5 1   
     9     4    13 ar  
    10     5     6 1   
    11     5    24 1   
    12     5    25 1   
    13     6    10 2   
    14     6    16 1   
    15     7    18 1   
    16     7    19 1   
    17     7    26 1   
    18     7    27 1   
    19     8    20 ar  
    20     8    22 ar  
    21     8    28 1   
    22     9    17 1   
    23     9    18 ar  
    24     9    20 ar  
    25    11    12 ar  
    26    11    29 1   
    27    12    13 ar  
    28    12    30 1   
    29    13    14 1   
    30    14    15 1   
    31    15    31 1   
    32    15    32 1   
    33    15    33 1   
    34    16    17 1   
    35    16    19 1   
    36    17    34 1   
    37    17    35 1   
    38    19    36 1   
    39    19    37 1   
    40    20    21 1   
    41    21    38 1   
    42    22    39 1   
@<TRIPOS>SUBSTRUCTURE
     1 A1B         1 TEMP              0 ****  ****    0 ROOT
