@<TRIPOS>MOLECULE
A1B
   44    46     1     0     0
SMALL
abcg2


@<TRIPOS>ATOM
      1 N1          10.2350    14.6170    22.5630 n          1 A1B      -0.408800
      2 C4           6.1490    11.5730    26.6840 ca         1 A1B      -0.081000
      3 C5           6.1100    12.8760    27.1550 ca         1 A1B      -0.135000
      4 C6           7.1340    13.7590    26.8240 ca         1 A1B      -0.064000
      5 C7           8.1770    13.3170    26.0360 ca         1 A1B      -0.134300
      6 C8           9.3860    14.0670    25.5710 c5         1 A1B      -0.032100
      7 C10          9.5700    13.5680    23.0870 c          1 A1B       0.602100
      8 C13         12.3990    15.4560    20.8680 c6         1 A1B      -0.066400
      9 C15         10.8420    15.3660    18.9110 c          1 A1B       0.609100
     10 O2          10.5130    16.5320    18.7460 o          1 A1B      -0.610100
     11 N2          10.9870    14.4980    17.9000 nt         1 A1B      -0.605000
     12 C14         11.1300    14.8140    20.2950 c6         1 A1B      -0.169700
     13 C12         12.6280    15.0210    22.3100 c6         1 A1B      -0.100400
     14 C11         11.3880    15.2760    23.1550 c6         1 A1B       0.102000
     15 C16          9.9390    15.0840    21.2210 c6         1 A1B       0.102000
     16 O1           8.6530    13.0030    22.5110 o          1 A1B      -0.587100
     17 C9           9.9740    13.1280    24.4990 c5         1 A1B       0.023700
     18 N            9.3740    11.8320    24.7910 n          1 A1B      -0.206400
     19 C1           9.9370    10.7240    24.2280 c          1 A1B       0.625100
     20 O           10.9020    10.8490    23.4920 o          1 A1B      -0.594100
     21 C            9.3680     9.3740    24.5580 c3         1 A1B      -0.172100
     22 C2           8.2190    12.0030    25.5690 ca         1 A1B      -0.003000
     23 C3           7.1960    11.1190    25.8840 ca         1 A1B      -0.139000
     24 H7           5.2840    13.2070    27.7700 ha         1 A1B       0.117000
     25 H8           7.1140    14.7830    27.1770 ha         1 A1B       0.116000
     26 H10          9.1480    15.0560    25.1780 hc         1 A1B       0.065200
     27 H9          10.0980    14.2080    26.3870 hc         1 A1B       0.065200
     28 H15         12.2960    16.5450    20.8310 hc         1 A1B       0.053700
     29 H16         13.2620    15.1950    20.2520 hc         1 A1B       0.053700
     30 H18         10.8390    14.7920    16.9480 hn         1 A1B       0.315000
     31 H17         11.2590    13.5420    18.0520 hn         1 A1B       0.315000
     32 H1          11.2790    13.7300    20.2420 hc         1 A1B       0.065700
     33 H13         13.4730    15.5660    22.7360 hc         1 A1B       0.053700
     34 H14         12.8770    13.9570    22.3510 hc         1 A1B       0.053700
     35 H12         11.1810    16.3500    23.2020 h1         1 A1B       0.049200
     36 H11         11.5480    14.9500    24.1790 h1         1 A1B       0.049200
     37 H19          9.7390    16.1580    21.2610 h1         1 A1B       0.074700
     38 H20          9.0420    14.5900    20.8570 h1         1 A1B       0.074700
     39 H           11.0550    13.0460    24.5870 h1         1 A1B       0.091700
     40 H3          10.0600     8.6110    24.2110 hc         1 A1B       0.066700
     41 H2           9.2050     9.2410    25.6270 hc         1 A1B       0.066700
     42 H4           8.4150     9.2180    24.0500 hc         1 A1B       0.066700
     43 H5           7.1700    10.1030    25.5240 ha         1 A1B       0.120000
     44 H6           5.3490    10.8870    26.9280 ha         1 A1B       0.114000
@<TRIPOS>BOND
     1     1     7 1   
     2     1    14 1   
     3     1    15 1   
     4     2     3 ar  
     5     2    23 ar  
     6     2    44 1   
     7     3     4 ar  
     8     3    24 1   
     9     4     5 ar  
    10     4    25 1   
    11     5     6 1   
    12     5    22 ar  
    13     6    17 1   
    14     6    26 1   
    15     6    27 1   
    16     7    16 2   
    17     7    17 1   
    18     8    12 1   
    19     8    13 1   
    20     8    28 1   
    21     8    29 1   
    22     9    10 2   
    23     9    11 1   
    24     9    12 1   
    25    11    30 1   
    26    11    31 1   
    27    12    15 1   
    28    12    32 1   
    29    13    14 1   
    30    13    33 1   
    31    13    34 1   
    32    14    35 1   
    33    14    36 1   
    34    15    37 1   
    35    15    38 1   
    36    17    18 1   
    37    17    39 1   
    38    18    19 1   
    39    18    22 1   
    40    19    20 2   
    41    19    21 1   
    42    21    40 1   
    43    21    41 1   
    44    21    42 1   
    45    22    23 ar  
    46    23    43 1   
@<TRIPOS>SUBSTRUCTURE
     1 A1B         1 TEMP              0 ****  ****    0 ROOT
