@<TRIPOS>MOLECULE
A1B
   38    39     1     0     0
SMALL
abcg2


@<TRIPOS>ATOM
      1 N1          26.0470    12.4800     8.7140 ns         1 A1B      -0.168000
      2 N3          23.9080    13.3400    14.7540 nt         1 A1B      -0.607000
      3 C4          27.7340    11.3340     7.3800 ca         1 A1B      -0.084000
      4 C5          26.7000    11.3090     8.2940 ca         1 A1B      -0.077000
      5 C6          26.2530    12.9630     9.9910 c          1 A1B       0.640100
      6 C7          24.3710    14.5480     9.6320 c6         1 A1B       0.093000
      7 C8          23.1390    13.9220    10.2720 c6         1 A1B      -0.109400
      8 C10         24.4160    13.8510    12.4510 c6         1 A1B      -0.181700
      9 C11         24.3780    14.2690    13.9070 c          1 A1B       0.612100
     10 C9          23.0940    14.2290    11.7660 c6         1 A1B      -0.069400
     11 C12         25.5870    14.5050    11.7140 c6         1 A1B       0.105000
     12 N2          25.5800    14.1040    10.3160 n          1 A1B      -0.394800
     13 O           27.0010    12.3850    10.7640 o          1 A1B      -0.606100
     14 C1          26.2710    10.0570     8.7650 ca         1 A1B       0.481300
     15 S           24.8960    10.0170     9.8640 ss         1 A1B      -0.358300
     16 C           24.6790     8.2460    10.1160 c3         1 A1B       0.031900
     17 C3          28.3180    10.1390     6.9740 ca         1 A1B      -0.162000
     18 C2          27.8440     8.9650     7.5270 ca         1 A1B       0.348900
     19 N           26.8420     8.9260     8.4020 nb         1 A1B      -0.684000
     20 H7          25.7700    13.1160     7.9830 hn         1 A1B       0.151000
     21 H14         23.7870    13.5540    15.7310 hn         1 A1B       0.314000
     22 H15         23.6220    12.4290    14.4390 hn         1 A1B       0.314000
     23 H6          28.0810    12.2820     6.9880 ha         1 A1B       0.121000
     24 H8          24.3270    15.6360     9.7230 h1         1 A1B       0.052200
     25 H9          24.4070    14.3390     8.5660 h1         1 A1B       0.052200
     26 H10         22.2400    14.3030     9.7840 hc         1 A1B       0.054700
     27 H11         23.1570    12.8400    10.1090 hc         1 A1B       0.054700
     28 H           24.5370    12.7630    12.3890 hc         1 A1B       0.073700
     29 H12         22.9140    15.3000    11.9080 hc         1 A1B       0.049700
     30 H13         22.2620    13.7010    12.2350 hc         1 A1B       0.049700
     31 H16         25.4930    15.5920    11.7520 h1         1 A1B       0.080200
     32 H17         26.5400    14.2440    12.1680 h1         1 A1B       0.080200
     33 H2          23.8250     8.1460    10.7840 h1         1 A1B       0.067700
     34 H3          24.4640     7.7320     9.1820 h1         1 A1B       0.067700
     35 H1          25.5520     7.8010    10.5860 h1         1 A1B       0.067700
     36 H5          29.1280    10.1250     6.2590 ha         1 A1B       0.127000
     37 H4          28.2770     8.0100     7.2530 h4         1 A1B       0.021100
     38 O1          24.7240    15.3840    14.2710 o          1 A1B      -0.608100
@<TRIPOS>BOND
     1     1     4 1   
     2     1     5 1   
     3     1    20 1   
     4     2     9 1   
     5     2    21 1   
     6     2    22 1   
     7     3     4 ar  
     8     3    17 ar  
     9     3    23 1   
    10     4    14 ar  
    11     5    12 1   
    12     5    13 2   
    13     6     7 1   
    14     6    12 1   
    15     6    24 1   
    16     6    25 1   
    17     7    10 1   
    18     7    26 1   
    19     7    27 1   
    20     8     9 1   
    21     8    10 1   
    22     8    11 1   
    23     8    28 1   
    24     9    38 2   
    25    10    29 1   
    26    10    30 1   
    27    11    12 1   
    28    11    31 1   
    29    11    32 1   
    30    14    15 1   
    31    14    19 ar  
    32    15    16 1   
    33    16    33 1   
    34    16    34 1   
    35    16    35 1   
    36    17    18 ar  
    37    17    36 1   
    38    18    19 ar  
    39    18    37 1   
@<TRIPOS>SUBSTRUCTURE
     1 A1B         1 TEMP              0 ****  ****    0 ROOT
