@<TRIPOS>MOLECULE
A1B
   42    44     1     0     0
SMALL
abcg2


@<TRIPOS>ATOM
      1 N1          10.1400    13.4880    22.5640 n          1 A1B      -0.416800
      2 C4          11.2070    13.7780    23.3410 c          1 A1B       0.565000
      3 C5           8.9600    12.9400    23.2000 c3         1 A1B       0.143300
      4 C6           9.0430    11.4520    23.4680 ca         1 A1B      -0.070300
      5 C7           9.9520    10.6540    22.7810 ca         1 A1B      -0.104000
      6 C8          10.0420     9.2910    23.0240 ca         1 A1B      -0.105000
      7 C10          8.3130     9.4860    24.6680 ca         1 A1B      -0.094000
      8 C13          7.2950    11.7410    26.5760 ca         1 A1B      -0.057000
      9 C15          5.3180    13.0710    26.5300 ca         1 A1B       0.334900
     10 C17         10.0360    13.7410    21.1330 c6         1 A1B       0.119000
     11 O1          11.2030    13.5470    24.5430 o          1 A1B      -0.557000
     12 C3          12.4290    14.3680    22.6760 c6         1 A1B      -0.161400
     13 C2          12.1960    14.9380    21.2880 c6         1 A1B      -0.065400
     14 C1          11.3930    13.9270    20.4760 c6         1 A1B      -0.163700
     15 C           11.2160    14.4050    19.0450 c          1 A1B       0.607100
     16 O           10.5680    15.4070    18.7810 o          1 A1B      -0.598100
     17 N           11.8350    13.6650    18.1150 nt         1 A1B      -0.606000
     18 C11          8.2060    10.8530    24.4180 cp         1 A1B      -0.030000
     19 C9           9.2210     8.7020    23.9740 ca         1 A1B      -0.110000
     20 C12          7.2150    11.6380    25.1910 cp         1 A1B      -0.091000
     21 C16          6.1460    12.2780    24.5660 ca         1 A1B       0.339900
     22 N2           5.2200    12.9760    25.2090 nb         1 A1B      -0.666000
     23 C14          6.3330    12.4700    27.2580 ca         1 A1B      -0.163000
     24 H7           8.7620    13.4740    24.1300 h1         1 A1B       0.067700
     25 H8           8.1120    13.1510    22.5440 h1         1 A1B       0.067700
     26 H9          10.6190    11.1020    22.0550 ha         1 A1B       0.109000
     27 H10         10.7580     8.6930    22.4750 ha         1 A1B       0.111000
     28 H12          7.6660     9.0330    25.4100 ha         1 A1B       0.116000
     29 H15          4.5520    13.6500    27.0340 h4         1 A1B       0.019100
     30 H18          9.5180    12.8930    20.6770 h1         1 A1B       0.057200
     31 H17          9.4150    14.6260    20.9660 h1         1 A1B       0.057200
     32 H6          13.1740    13.5670    22.6240 hc         1 A1B       0.073700
     33 H5          12.8380    15.1220    23.3500 hc         1 A1B       0.073700
     34 H4          13.1530    15.1510    20.8110 hc         1 A1B       0.062700
     35 H3          11.6480    15.8810    21.3450 hc         1 A1B       0.062700
     36 H           11.9260    12.9710    20.4860 hc         1 A1B       0.056700
     37 H1          11.7950    13.9290    17.1430 hn         1 A1B       0.316000
     38 H2          12.3620    12.8420    18.3500 hn         1 A1B       0.316000
     39 H11          9.2870     7.6410    24.1760 ha         1 A1B       0.115000
     40 H16          6.0330    12.2070    23.4880 h4         1 A1B       0.018100
     41 H14          6.3700    12.5750    28.3340 ha         1 A1B       0.125000
     42 H13          8.1050    11.2610    27.1130 ha         1 A1B       0.127000
@<TRIPOS>BOND
     1     1     2 1   
     2     1     3 1   
     3     1    10 1   
     4     2    11 2   
     5     2    12 1   
     6     3     4 1   
     7     3    24 1   
     8     3    25 1   
     9     4     5 ar  
    10     4    18 ar  
    11     5     6 ar  
    12     5    26 1   
    13     6    19 ar  
    14     6    27 1   
    15     7    18 ar  
    16     7    19 ar  
    17     7    28 1   
    18     8    20 ar  
    19     8    23 ar  
    20     8    42 1   
    21     9    22 ar  
    22     9    23 ar  
    23     9    29 1   
    24    10    14 1   
    25    10    30 1   
    26    10    31 1   
    27    12    13 1   
    28    12    32 1   
    29    12    33 1   
    30    13    14 1   
    31    13    34 1   
    32    13    35 1   
    33    14    15 1   
    34    14    36 1   
    35    15    16 2   
    36    15    17 1   
    37    17    37 1   
    38    17    38 1   
    39    18    20 1   
    40    19    39 1   
    41    20    21 ar  
    42    21    22 ar  
    43    21    40 1   
    44    23    41 1   
@<TRIPOS>SUBSTRUCTURE
     1 A1B         1 TEMP              0 ****  ****    0 ROOT
