@<TRIPOS>MOLECULE
A1B
   39    40     1     0     0
SMALL
abcg2


@<TRIPOS>ATOM
      1 N1          24.3670    14.2610    15.1910 nt         1 A1B      -0.605000
      2 C4          25.7090     8.4250     8.4070 ca         1 A1B      -0.070000
      3 C5          25.0240     9.5780     8.7530 ca         1 A1B      -0.152000
      4 C6          25.6170    10.8100     8.4860 ca         1 A1B       0.374300
      5 C7          24.9240    12.0900     8.8470 c3         1 A1B      -0.207700
      6 C8          25.4200    12.6200    10.1860 c          1 A1B       0.609100
      7 C10         22.6960    14.6170    10.7540 c6         1 A1B      -0.102400
      8 C13         24.5570    15.0280    14.1080 c          1 A1B       0.609100
      9 O1          25.0050    16.1650    14.1670 o          1 A1B      -0.607100
     10 C12         24.1720    14.3990    12.7830 c6         1 A1B      -0.171700
     11 C11         23.0050    15.1600    12.1450 c6         1 A1B      -0.067400
     12 C9          23.9490    14.6040     9.8870 c6         1 A1B       0.097000
     13 C14         25.3760    14.4070    11.8350 c6         1 A1B       0.099000
     14 N           25.0070    13.8560    10.5450 n          1 A1B      -0.407800
     15 O           26.1720    11.9500    10.8800 o          1 A1B      -0.591100
     16 C3          26.9550     8.5400     7.8120 ca         1 A1B      -0.154000
     17 N2          26.8040    10.9160     7.9100 nb         1 A1B      -0.670000
     18 C2          27.4740     9.8120     7.5800 ca         1 A1B       0.410800
     19 C1          28.7960     9.9550     6.9580 ce         1 A1B      -0.301800
     20 C           29.4100    11.1120     6.7210 c2         1 A1B      -0.264000
     21 H15         24.5920    14.6090    16.1090 hn         1 A1B       0.314500
     22 H16         24.0080    13.3250    15.1250 hn         1 A1B       0.314500
     23 H6          24.0500     9.5310     9.2200 ha         1 A1B       0.119000
     24 H7          25.1010    12.8260     8.0600 hc         1 A1B       0.072200
     25 H8          23.8430    11.9350     8.8990 hc         1 A1B       0.072200
     26 H11         21.9310    15.2300    10.2740 hc         1 A1B       0.048200
     27 H12         22.2980    13.6010    10.8250 hc         1 A1B       0.048200
     28 H           23.8710    13.3570    12.9360 hc         1 A1B       0.058700
     29 H13         23.2670    16.2190    12.0690 hc         1 A1B       0.055200
     30 H14         22.1200    15.0950    12.7820 hc         1 A1B       0.055200
     31 H9          24.3010    15.6270     9.7250 h1         1 A1B       0.054200
     32 H10         23.7330    14.1900     8.9060 h1         1 A1B       0.054200
     33 H17         25.7200    15.4350    11.6870 h1         1 A1B       0.076700
     34 H18         26.2040    13.8370    12.2480 h1         1 A1B       0.076700
     35 H4          27.5190     7.6610     7.5280 ha         1 A1B       0.122000
     36 H3          29.2880     9.0260     6.6890 ha         1 A1B       0.170000
     37 H1          30.3890    11.1380     6.2620 ha         1 A1B       0.171500
     38 H2          28.9590    12.0620     6.9760 ha         1 A1B       0.171500
     39 H5          25.2790     7.4510     8.5980 ha         1 A1B       0.118000
@<TRIPOS>BOND
     1     1     8 1   
     2     1    21 1   
     3     1    22 1   
     4     2     3 ar  
     5     2    16 ar  
     6     2    39 1   
     7     3     4 ar  
     8     3    23 1   
     9     4     5 1   
    10     4    17 ar  
    11     5     6 1   
    12     5    24 1   
    13     5    25 1   
    14     6    14 1   
    15     6    15 2   
    16     7    11 1   
    17     7    12 1   
    18     7    26 1   
    19     7    27 1   
    20     8     9 2   
    21     8    10 1   
    22    10    11 1   
    23    10    13 1   
    24    10    28 1   
    25    11    29 1   
    26    11    30 1   
    27    12    14 1   
    28    12    31 1   
    29    12    32 1   
    30    13    14 1   
    31    13    33 1   
    32    13    34 1   
    33    16    18 ar  
    34    16    35 1   
    35    17    18 ar  
    36    18    19 1   
    37    19    20 2   
    38    19    36 1   
    39    20    37 1   
    40    20    38 1   
@<TRIPOS>SUBSTRUCTURE
     1 A1B         1 TEMP              0 ****  ****    0 ROOT
