@<TRIPOS>MOLECULE
A1B
   33    34     1     0     0
SMALL
abcg2


@<TRIPOS>ATOM
      1 N1          11.4960    14.6360    22.4890 n          1 A1B      -0.416800
      2 C4          12.7650    14.8150    22.9230 c          1 A1B       0.567000
      3 C5          10.4660    14.2860    23.4390 c3         1 A1B       0.140300
      4 C6          10.1950    12.8040    23.5560 ca         1 A1B      -0.084300
      5 C7           9.1770    12.3750    24.4060 ca         1 A1B      -0.109000
      6 C8           8.8950    11.0270    24.5450 ca         1 A1B      -0.097000
      7 C10         10.6260    10.5120    22.9940 ca         1 A1B       0.123000
      8 CL          11.5450     9.3460    22.0940 cl         1 A1B      -0.212000
      9 C9           9.6200    10.0760    23.8360 ca         1 A1B      -0.105000
     10 C11         10.9250    11.8600    22.8460 ca         1 A1B      -0.094000
     11 O1          13.0790    14.6240    24.0900 o          1 A1B      -0.559000
     12 C3          13.8050    15.2410    21.9130 c6         1 A1B      -0.161400
     13 C2          13.2600    15.7460    20.5890 c6         1 A1B      -0.066400
     14 C12         11.0340    14.8180    21.1180 c6         1 A1B       0.116000
     15 C1          12.1700    14.7910    20.1130 c6         1 A1B      -0.163700
     16 C           11.6670    15.1930    18.7380 c          1 A1B       0.608100
     17 O           11.0160    16.2120    18.5650 o          1 A1B      -0.599100
     18 N           12.0150    14.3680    17.7410 nt         1 A1B      -0.605000
     19 H7          10.7260    14.6830    24.4200 h1         1 A1B       0.069700
     20 H8           9.5440    14.7910    23.1390 h1         1 A1B       0.069700
     21 H9           8.6020    13.1040    24.9650 ha         1 A1B       0.116000
     22 H10          8.1040    10.7060    25.2090 ha         1 A1B       0.118000
     23 H11          9.4000     9.0220    23.9410 ha         1 A1B       0.130000
     24 H12         11.7230    12.1630    22.1800 ha         1 A1B       0.127000
     25 H6          14.4510    14.3740    21.7430 hc         1 A1B       0.075200
     26 H5          14.4320    15.9940    22.3930 hc         1 A1B       0.075200
     27 H4          14.0690    15.8160    19.8600 hc         1 A1B       0.061700
     28 H3          12.8420    16.7500    20.7020 hc         1 A1B       0.061700
     29 H14         10.3210    14.0190    20.8960 h1         1 A1B       0.059200
     30 H13         10.4900    15.7640    21.0450 h1         1 A1B       0.059200
     31 H           12.5870    13.7790    20.0760 hc         1 A1B       0.059700
     32 H1          11.7610    14.5810    16.7900 hn         1 A1B       0.317000
     33 H2          12.5560    13.5360    17.9030 hn         1 A1B       0.317000
@<TRIPOS>BOND
     1     1     2 1   
     2     1     3 1   
     3     1    14 1   
     4     2    11 2   
     5     2    12 1   
     6     3     4 1   
     7     3    19 1   
     8     3    20 1   
     9     4     5 ar  
    10     4    10 ar  
    11     5     6 ar  
    12     5    21 1   
    13     6     9 ar  
    14     6    22 1   
    15     7     8 1   
    16     7     9 ar  
    17     7    10 ar  
    18     9    23 1   
    19    10    24 1   
    20    12    13 1   
    21    12    25 1   
    22    12    26 1   
    23    13    15 1   
    24    13    27 1   
    25    13    28 1   
    26    14    15 1   
    27    14    29 1   
    28    14    30 1   
    29    15    16 1   
    30    15    31 1   
    31    16    17 2   
    32    16    18 1   
    33    18    32 1   
    34    18    33 1   
@<TRIPOS>SUBSTRUCTURE
     1 A1B         1 TEMP              0 ****  ****    0 ROOT
