@<TRIPOS>MOLECULE
A1B
   49    51     1     0     0
SMALL
abcg2


@<TRIPOS>ATOM
      1 N1          25.5040    13.9740    10.1820 n          1 A1B      -0.401800
      2 C4          27.9660    10.8240     7.5210 ca         1 A1B       0.377900
      3 C5          26.8070    11.2430     8.1460 ca         1 A1B      -0.153300
      4 C6          26.4580    12.6910     8.2970 c3         1 A1B      -0.092100
      5 C7          26.4590    13.1170     9.7600 c          1 A1B       0.613100
      6 C8          25.5230    14.4420    11.5560 c6         1 A1B       0.102000
      7 C10         24.1590    14.5170    13.6490 c          1 A1B       0.606100
      8 C13         21.8400    14.6690     9.6020 c6         1 A1B      -0.069400
      9 C15         23.1380    15.5430     7.6120 c6         1 A1B      -0.074400
     10 C17         24.2840    14.2830     9.4300 c6         1 A1B       0.115700
     11 O2          23.9580    15.7240    13.6340 o          1 A1B      -0.609100
     12 N2          24.1210    13.7870    14.7740 nt         1 A1B      -0.608000
     13 C9          24.4360    13.7370    12.3770 c6         1 A1B      -0.167700
     14 C11         23.1370    13.6120    11.5390 c6         1 A1B      -0.054400
     15 C12         23.1400    14.6130    10.3970 c6         1 A1B      -0.078700
     16 C16         24.4360    15.4040     8.4080 c6         1 A1B      -0.088400
     17 C14         21.9240    15.7390     8.5170 c6         1 A1B      -0.076400
     18 O1          27.3570    12.7190    10.4900 o          1 A1B      -0.606100
     19 C1          25.9420    10.2520     8.6290 ca         1 A1B       0.181100
     20 O           24.8340    10.6840     9.2340 os         1 A1B      -0.340100
     21 C           23.9110     9.7350     9.7400 c3         1 A1B       0.147900
     22 N           28.3170     9.5520     7.3430 nb         1 A1B      -0.684000
     23 C3          27.4830     8.6330     7.8050 ca         1 A1B       0.370900
     24 C2          26.2890     8.9180     8.4530 ca         1 A1B      -0.255000
     25 H9          27.2200    13.3000     7.8000 hc         1 A1B       0.068200
     26 H10         25.5230    12.9080     7.7830 hc         1 A1B       0.068200
     27 H11         26.5050    14.2620    11.9830 h1         1 A1B       0.075200
     28 H12         25.3640    15.5210    11.5630 h1         1 A1B       0.075200
     29 H18         21.6380    13.6890     9.1550 hc         1 A1B       0.041700
     30 H17         21.0060    14.8800    10.2780 hc         1 A1B       0.041700
     31 H22         22.9990    14.6390     7.0090 hc         1 A1B       0.040700
     32 H21         23.2200    16.3730     6.9080 hc         1 A1B       0.040700
     33 H2          23.9750    13.3720     8.9070 h1         1 A1B       0.055700
     34 H13         23.8980    14.2200    15.6560 hn         1 A1B       0.313500
     35 H14         24.2870    12.7960    14.7730 hn         1 A1B       0.313500
     36 H           24.7910    12.7350    12.6290 hc         1 A1B       0.062700
     37 H16         23.0670    12.6000    11.1310 hc         1 A1B       0.045200
     38 H15         22.2530    13.7470    12.1660 hc         1 A1B       0.045200
     39 H1          23.2970    15.6150    10.8130 hc         1 A1B       0.074700
     40 H24         25.2680    15.2050     7.7270 hc         1 A1B       0.049200
     41 H23         24.6720    16.3400     8.9250 hc         1 A1B       0.049200
     42 H20         21.0100    15.7440     7.9180 hc         1 A1B       0.044200
     43 H19         21.9860    16.7220     8.9950 hc         1 A1B       0.044200
     44 H4          23.0990    10.3050    10.1820 h1         1 A1B       0.044033
     45 H5          23.5110     9.1000     8.9470 h1         1 A1B       0.044033
     46 H3          24.3630     9.1050    10.5090 h1         1 A1B       0.044033
     47 H7          27.7690     7.5970     7.6580 h4         1 A1B       0.016100
     48 H6          25.6670     8.1040     8.8000 ha         1 A1B       0.125000
     49 H8          28.6540    11.5730     7.1390 h4         1 A1B       0.020100
@<TRIPOS>BOND
     1     1     5 1   
     2     1     6 1   
     3     1    10 1   
     4     2     3 ar  
     5     2    22 ar  
     6     2    49 1   
     7     3     4 1   
     8     3    19 ar  
     9     4     5 1   
    10     4    25 1   
    11     4    26 1   
    12     5    18 2   
    13     6    13 1   
    14     6    27 1   
    15     6    28 1   
    16     7    11 2   
    17     7    12 1   
    18     7    13 1   
    19     8    15 1   
    20     8    17 1   
    21     8    29 1   
    22     8    30 1   
    23     9    16 1   
    24     9    17 1   
    25     9    31 1   
    26     9    32 1   
    27    10    15 1   
    28    10    16 1   
    29    10    33 1   
    30    12    34 1   
    31    12    35 1   
    32    13    14 1   
    33    13    36 1   
    34    14    15 1   
    35    14    37 1   
    36    14    38 1   
    37    15    39 1   
    38    16    40 1   
    39    16    41 1   
    40    17    42 1   
    41    17    43 1   
    42    19    20 1   
    43    19    24 ar  
    44    20    21 1   
    45    21    44 1   
    46    21    45 1   
    47    21    46 1   
    48    22    23 ar  
    49    23    24 ar  
    50    23    47 1   
    51    24    48 1   
@<TRIPOS>SUBSTRUCTURE
     1 A1B         1 TEMP              0 ****  ****    0 ROOT
