@<TRIPOS>MOLECULE
A1B
   39    41     1     0     0
SMALL
abcg2


@<TRIPOS>ATOM
      1 N1           8.9020    15.5740    21.6400 n          1 A1B      -0.411800
      2 N3           6.1670    12.4660    25.6560 na         1 A1B      -0.315600
      3 C4           7.5720    15.1260    22.0240 c3         1 A1B       0.159300
      4 C5           9.1310    15.8100    20.2210 c6         1 A1B       0.123000
      5 C6          10.6110    15.8280    19.8820 c6         1 A1B      -0.163700
      6 C7          10.8220    16.2000    18.4260 c          1 A1B       0.609100
      7 C8          11.3060    16.8320    20.7970 c6         1 A1B      -0.066400
      8 C10          9.7650    15.9010    22.6250 c          1 A1B       0.561000
      9 C13          7.4070    11.1640    23.8790 ca         1 A1B      -0.084000
     10 C11          8.0860    12.6380    22.0990 ca         1 A1B       0.151000
     11 C12          8.0390    11.3640    22.6640 ca         1 A1B      -0.138000
     12 C14          6.8470    12.2800    24.4800 ca         1 A1B      -0.096200
     13 C2           6.9050    13.5590    23.9030 ca         1 A1B       0.114400
     14 N            6.2740    14.4690    24.7140 nc         1 A1B      -0.570100
     15 C1           5.8540    13.7840    25.7460 cd         1 A1B       0.428800
     16 C            5.1250    14.3430    26.9110 c3         1 A1B      -0.115400
     17 C3           7.5380    13.7680    22.6730 ca         1 A1B      -0.068300
     18 O1           9.4640    15.7830    23.8060 o          1 A1B      -0.554000
     19 C9          11.1500    16.3720    22.2350 c6         1 A1B      -0.160400
     20 O           10.2540    17.1560    17.9170 o          1 A1B      -0.604100
     21 N2          11.6920    15.4270    17.7620 nt         1 A1B      -0.606000
     22 H1           5.9430    11.7580    26.3370 hn         1 A1B       0.355000
     23 H6           6.9610    15.1170    21.1200 h1         1 A1B       0.070200
     24 H5           7.1100    15.8480    22.6980 h1         1 A1B       0.070200
     25 H8           8.6330    15.0190    19.6610 h1         1 A1B       0.058200
     26 H7           8.6700    16.7560    19.9220 h1         1 A1B       0.058200
     27 H           11.0240    14.8320    20.0740 hc         1 A1B       0.064700
     28 H12         12.3650    16.9210    20.5510 hc         1 A1B       0.058200
     29 H11         10.8590    17.8190    20.6570 hc         1 A1B       0.058200
     30 H16          7.3610    10.1810    24.3280 ha         1 A1B       0.120000
     31 H15          8.4980    10.5360    22.1400 ha         1 A1B       0.129000
     32 H3           4.9500    15.4050    26.7630 hc         1 A1B       0.060367
     33 H4           4.1640    13.8470    27.0520 hc         1 A1B       0.060367
     34 H2           5.6990    14.2110    27.8300 hc         1 A1B       0.060367
     35 H14         11.8260    15.5330    22.4300 hc         1 A1B       0.071200
     36 H13         11.4370    17.1590    22.9330 hc         1 A1B       0.071200
     37 H10         11.9300    15.6330    16.8040 hn         1 A1B       0.315500
     38 H9          12.1530    14.6470    18.1960 hn         1 A1B       0.315500
     39 F            8.7100    12.7560    20.9080 f          1 A1B      -0.190000
@<TRIPOS>BOND
     1     1     3 1   
     2     1     4 1   
     3     1     8 1   
     4     2    12 1   
     5     2    15 1   
     6     2    22 1   
     7     3    17 1   
     8     3    23 1   
     9     3    24 1   
    10     4     5 1   
    11     4    25 1   
    12     4    26 1   
    13     5     6 1   
    14     5     7 1   
    15     5    27 1   
    16     6    20 2   
    17     6    21 1   
    18     7    19 1   
    19     7    28 1   
    20     7    29 1   
    21     8    18 2   
    22     8    19 1   
    23     9    11 ar  
    24     9    12 ar  
    25     9    30 1   
    26    10    11 ar  
    27    10    17 ar  
    28    10    39 1   
    29    11    31 1   
    30    12    13 ar  
    31    13    14 1   
    32    13    17 ar  
    33    14    15 2   
    34    15    16 1   
    35    16    32 1   
    36    16    33 1   
    37    16    34 1   
    38    19    35 1   
    39    19    36 1   
    40    21    37 1   
    41    21    38 1   
@<TRIPOS>SUBSTRUCTURE
     1 A1B         1 TEMP              0 ****  ****    0 ROOT
