@<TRIPOS>MOLECULE
A1B
   38    39     1     0     0
SMALL
abcg2


@<TRIPOS>ATOM
      1 N1          28.4730    10.1910     7.1780 nb         1 A1B      -0.175000
      2 N3          23.9020    13.4780    14.9450 nt         1 A1B      -0.606000
      3 C4          26.6470    11.2810     8.2700 ca         1 A1B      -0.158300
      4 C5          25.9190    12.5350     8.6200 c3         1 A1B      -0.105100
      5 C6          26.1700    12.9410    10.0710 c          1 A1B       0.605100
      6 C7          24.4580    14.7270     9.8080 c6         1 A1B       0.097000
      7 C8          23.1080    14.3880    10.4260 c6         1 A1B      -0.103400
      8 C10         24.2870    14.0150    12.6210 c6         1 A1B      -0.173700
      9 C11         24.3260    14.4140    14.0830 c          1 A1B       0.610100
     10 C9          23.1050    14.6980    11.9200 c6         1 A1B      -0.068400
     11 C12         25.5930    14.4010    11.9220 c6         1 A1B       0.101000
     12 N2          25.5210    14.0360    10.5190 n          1 A1B      -0.405800
     13 O           26.9480    12.3030    10.7630 o          1 A1B      -0.585100
     14 C1          26.2200    10.0110     8.6830 ca         1 A1B       0.244300
     15 S           24.7640     9.8840     9.6430 ss         1 A1B      -0.362300
     16 C           24.5950     8.1040     9.8610 c3         1 A1B       0.036900
     17 C3          27.7960    11.2910     7.5050 ca         1 A1B       0.123900
     18 C2          27.9770     9.0560     7.6290 ca         1 A1B       0.135900
     19 N           26.8820     8.9120     8.3620 nb         1 A1B      -0.202000
     20 H14         23.8670    13.6710    15.9330 hn         1 A1B       0.314500
     21 H15         23.6090    12.5660    14.6400 hn         1 A1B       0.314500
     22 H6          26.2400    13.3430     7.9570 hc         1 A1B       0.072200
     23 H7          24.8470    12.4090     8.4380 hc         1 A1B       0.072200
     24 H8          24.6440    15.8020     9.8890 h1         1 A1B       0.053200
     25 H9          24.4780    14.4880     8.7490 h1         1 A1B       0.053200
     26 H10         22.3250    14.9580     9.9230 hc         1 A1B       0.050700
     27 H11         22.8930    13.3280    10.2620 hc         1 A1B       0.050700
     28 H           24.1650    12.9300    12.5350 hc         1 A1B       0.063700
     29 H12         23.1820    15.7800    12.0650 hc         1 A1B       0.053700
     30 H13         22.1630    14.3800    12.3710 hc         1 A1B       0.053700
     31 H16         25.7460    15.4810    11.9910 h1         1 A1B       0.078200
     32 H17         26.4480    13.9150    12.3840 h1         1 A1B       0.078200
     33 H1          23.6920     7.9650    10.4510 h1         1 A1B       0.071700
     34 H3          24.4820     7.5980     8.9050 h1         1 A1B       0.071700
     35 H2          25.4440     7.6920    10.4000 h1         1 A1B       0.071700
     36 H5          28.1880    12.2340     7.1370 h4         1 A1B       0.023100
     37 H4          28.5100     8.1460     7.3770 h5         1 A1B       0.050100
     38 O1          24.7020    15.5230    14.4360 o          1 A1B      -0.607100
@<TRIPOS>BOND
     1     1    17 ar  
     2     1    18 ar  
     3     2     9 1   
     4     2    20 1   
     5     2    21 1   
     6     3     4 1   
     7     3    14 ar  
     8     3    17 ar  
     9     4     5 1   
    10     4    22 1   
    11     4    23 1   
    12     5    12 1   
    13     5    13 2   
    14     6     7 1   
    15     6    12 1   
    16     6    24 1   
    17     6    25 1   
    18     7    10 1   
    19     7    26 1   
    20     7    27 1   
    21     8     9 1   
    22     8    10 1   
    23     8    11 1   
    24     8    28 1   
    25     9    38 2   
    26    10    29 1   
    27    10    30 1   
    28    11    12 1   
    29    11    31 1   
    30    11    32 1   
    31    14    15 1   
    32    14    19 ar  
    33    15    16 1   
    34    16    33 1   
    35    16    34 1   
    36    16    35 1   
    37    17    36 1   
    38    18    19 ar  
    39    18    37 1   
@<TRIPOS>SUBSTRUCTURE
     1 A1B         1 TEMP              0 ****  ****    0 ROOT
