@<TRIPOS>MOLECULE
A1B
   41    42     1     0     0
SMALL
abcg2


@<TRIPOS>ATOM
      1 N1          12.0940    13.7150    17.9600 nt         1 A1B      -0.606000
      2 C4           7.4310     9.1120    26.2940 ca         1 A1B      -0.099000
      3 C5           7.7530    10.3700    26.7830 ca         1 A1B      -0.107000
      4 C6           8.5540    11.2090    26.0260 ca         1 A1B      -0.090000
      5 C7           9.0470    10.8090    24.7870 ca         1 A1B      -0.072300
      6 C8           9.9260    11.7580    24.0310 c3         1 A1B      -0.240100
      7 C10         12.0580    15.1720    22.4190 c6         1 A1B      -0.078400
      8 C13         11.2690    14.4430    18.7260 c          1 A1B       0.604100
      9 O2          10.4920    15.2710    18.2700 o          1 A1B      -0.601100
     10 C12         11.3740    14.1890    20.2190 c6         1 A1B      -0.149700
     11 C11         12.0340    15.3830    20.9130 c6         1 A1B      -0.066400
     12 C9          10.6660    14.8890    22.9580 c6         1 A1B       0.208800
     13 C14          9.9820    13.9400    20.7960 c6         1 A1B       0.223800
     14 N           10.0970    13.7480    22.2390 n3         1 A1B      -0.773500
     15 S            8.9320    12.8790    23.0300 s6         1 A1B       1.180100
     16 O            8.1590    13.7320    23.9260 o          1 A1B      -0.532500
     17 O1           8.2020    12.0900    22.0460 o          1 A1B      -0.532500
     18 C2           8.7320     9.5340    24.2900 ca         1 A1B      -0.024800
     19 C1           9.2490     9.0610    22.9950 ce         1 A1B      -0.166200
     20 C            9.5750     7.7980    22.7270 c2         1 A1B      -0.305000
     21 C3           7.9160     8.7040    25.0620 ca         1 A1B      -0.103000
     22 H17         12.1180    13.8500    16.9620 hn         1 A1B       0.315000
     23 H16         12.7300    13.0420    18.3520 hn         1 A1B       0.315000
     24 H6           7.3800    10.6970    27.7440 ha         1 A1B       0.117000
     25 H7           8.8200    12.1860    26.4120 ha         1 A1B       0.119000
     26 H8          10.5150    12.3770    24.7090 h1         1 A1B       0.099200
     27 H9          10.6130    11.2640    23.3460 h1         1 A1B       0.099200
     28 H12         12.4530    16.0580    22.9200 hc         1 A1B       0.049700
     29 H13         12.7170    14.3370    22.6700 hc         1 A1B       0.049700
     30 H           11.9820    13.2980    20.4040 hc         1 A1B       0.058700
     31 H14         11.4770    16.2940    20.6740 hc         1 A1B       0.055700
     32 H15         13.0500    15.5220    20.5350 hc         1 A1B       0.055700
     33 H11         10.0250    15.7710    22.8420 h1         1 A1B       0.052700
     34 H10         10.7250    14.6660    24.0230 h1         1 A1B       0.052700
     35 H18          9.3250    14.7870    20.5700 h1         1 A1B       0.073200
     36 H19          9.5490    13.0490    20.3450 h1         1 A1B       0.073200
     37 H3           9.3720     9.7980    22.2100 ha         1 A1B       0.185000
     38 H2           9.9370     7.5160    21.7480 ha         1 A1B       0.163000
     39 H1           9.5030     7.0070    23.4630 ha         1 A1B       0.163000
     40 H4           7.6430     7.7290    24.6810 ha         1 A1B       0.116000
     41 H5           6.7980     8.4480    26.8690 ha         1 A1B       0.115000
@<TRIPOS>BOND
     1     1     8 1   
     2     1    22 1   
     3     1    23 1   
     4     2     3 ar  
     5     2    21 ar  
     6     2    41 1   
     7     3     4 ar  
     8     3    24 1   
     9     4     5 ar  
    10     4    25 1   
    11     5     6 1   
    12     5    18 ar  
    13     6    15 1   
    14     6    26 1   
    15     6    27 1   
    16     7    11 1   
    17     7    12 1   
    18     7    28 1   
    19     7    29 1   
    20     8     9 2   
    21     8    10 1   
    22    10    11 1   
    23    10    13 1   
    24    10    30 1   
    25    11    31 1   
    26    11    32 1   
    27    12    14 1   
    28    12    33 1   
    29    12    34 1   
    30    13    14 1   
    31    13    35 1   
    32    13    36 1   
    33    14    15 1   
    34    15    16 2   
    35    15    17 2   
    36    18    19 1   
    37    18    21 ar  
    38    19    20 2   
    39    19    37 1   
    40    20    38 1   
    41    20    39 1   
    42    21    40 1   
@<TRIPOS>SUBSTRUCTURE
     1 A1B         1 TEMP              0 ****  ****    0 ROOT
