@<TRIPOS>MOLECULE
A1B
   40    42     1     0     0
SMALL
abcg2


@<TRIPOS>ATOM
      1 N1          10.4340    14.3630    22.2440 n          1 A1B      -0.415800
      2 C4          11.5910    14.4600    22.9380 c          1 A1B       0.563000
      3 C5           9.2400    13.8480    22.9100 c6         1 A1B       0.168000
      4 C6           8.6900    14.8050    23.9660 c6         1 A1B      -0.089400
      5 C7           7.5270    14.1550    24.6990 c6         1 A1B      -0.069400
      6 C8           8.0130    12.9260    25.4530 c6         1 A1B      -0.033100
      7 C10          8.9360    10.6490    24.9540 ca         1 A1B      -0.111000
      8 C13         10.1270    11.5110    22.6260 ca         1 A1B      -0.098000
      9 C15         10.2230    14.9010    20.9060 c6         1 A1B       0.119000
     10 O1          11.6880    14.0590    24.0900 o          1 A1B      -0.552000
     11 C3          12.8020    15.0350    22.2350 c6         1 A1B      -0.162400
     12 C2          12.5040    15.8520    20.9910 c6         1 A1B      -0.064400
     13 C1          11.5190    15.0730    20.1300 c6         1 A1B      -0.161700
     14 C           11.2390    15.7950    18.8240 c          1 A1B       0.607100
     15 O           10.7820    16.9290    18.8070 o          1 A1B      -0.599100
     16 N           11.5380    15.1080    17.7130 nt         1 A1B      -0.606000
     17 C14          9.4160    12.4240    23.4040 ca         1 A1B      -0.067300
     18 C12         10.2560    10.1870    23.0100 ca         1 A1B      -0.115000
     19 C11          9.6580     9.7510    24.1860 ca         1 A1B      -0.105000
     20 C9           8.8030    11.9860    24.5800 ca         1 A1B      -0.054300
     21 H1           8.4820    13.7920    22.1220 h1         1 A1B       0.049700
     22 H8           9.4670    15.0680    24.6840 hc         1 A1B       0.056700
     23 H9           8.3760    15.7280    23.4730 hc         1 A1B       0.056700
     24 H10          7.0730    14.8640    25.3940 hc         1 A1B       0.042200
     25 H11          6.7460    13.8730    23.9860 hc         1 A1B       0.042200
     26 H12          8.6420    13.2480    26.2910 hc         1 A1B       0.051700
     27 H13          7.1710    12.3900    25.8980 hc         1 A1B       0.051700
     28 H14          8.4600    10.3110    25.8680 ha         1 A1B       0.109000
     29 H17         10.5960    11.8430    21.7070 ha         1 A1B       0.105000
     30 H19          9.5670    14.2120    20.3700 h1         1 A1B       0.053200
     31 H18          9.7000    15.8610    20.9690 h1         1 A1B       0.053200
     32 H7          13.4420    14.1850    21.9740 hc         1 A1B       0.072700
     33 H6          13.3560    15.6200    22.9690 hc         1 A1B       0.072700
     34 H5          13.4300    16.0520    20.4500 hc         1 A1B       0.062700
     35 H4          12.0730    16.8190    21.2600 hc         1 A1B       0.062700
     36 H           11.9370    14.0810    19.9280 hc         1 A1B       0.058700
     37 H2          11.3810    15.5140    16.8040 hn         1 A1B       0.316500
     38 H3          11.9000    14.1710    17.7470 hn         1 A1B       0.316500
     39 H16         10.8170     9.4970    22.3920 ha         1 A1B       0.108000
     40 H15          9.7470     8.7180    24.4970 ha         1 A1B       0.111000
@<TRIPOS>BOND
     1     1     2 1   
     2     1     3 1   
     3     1     9 1   
     4     2    10 2   
     5     2    11 1   
     6     3     4 1   
     7     3    17 1   
     8     3    21 1   
     9     4     5 1   
    10     4    22 1   
    11     4    23 1   
    12     5     6 1   
    13     5    24 1   
    14     5    25 1   
    15     6    20 1   
    16     6    26 1   
    17     6    27 1   
    18     7    19 ar  
    19     7    20 ar  
    20     7    28 1   
    21     8    17 ar  
    22     8    18 ar  
    23     8    29 1   
    24     9    13 1   
    25     9    30 1   
    26     9    31 1   
    27    11    12 1   
    28    11    32 1   
    29    11    33 1   
    30    12    13 1   
    31    12    34 1   
    32    12    35 1   
    33    13    14 1   
    34    13    36 1   
    35    14    15 2   
    36    14    16 1   
    37    16    37 1   
    38    16    38 1   
    39    17    20 ar  
    40    18    19 ar  
    41    18    39 1   
    42    19    40 1   
@<TRIPOS>SUBSTRUCTURE
     1 A1B         1 TEMP              0 ****  ****    0 ROOT
