@<TRIPOS>MOLECULE
A1B
   43    44     1     0     0
SMALL
abcg2


@<TRIPOS>ATOM
      1 N1          10.4880    15.2940    17.4330 nt         1 A1B      -0.606000
      2 C4           5.1920    12.3960    24.9600 ca         1 A1B      -0.114000
      3 C5           5.9760    13.4900    24.6190 ca         1 A1B      -0.084000
      4 C6           7.2150    13.3370    24.0130 ca         1 A1B      -0.053300
      5 C7           8.0310    14.5460    23.6670 c3         1 A1B      -0.115100
      6 C8           7.9140    14.9130    22.1900 c          1 A1B       0.605100
      7 C10         11.0850    16.1800    22.0140 c6         1 A1B      -0.089700
      8 C13         10.0170    15.8490    19.7400 c6         1 A1B      -0.171700
      9 C15          8.6890    16.3030    20.3520 c6         1 A1B       0.101000
     10 O1           9.8140    17.3890    17.9170 o          1 A1B      -0.608100
     11 C14         10.0890    16.2540    18.2800 c          1 A1B       0.610100
     12 C12         11.1860    16.4670    20.5170 c6         1 A1B      -0.065400
     13 C11         12.1870    16.8850    22.7900 c3         1 A1B      -0.086100
     14 C9           9.7080    16.6050    22.5230 c6         1 A1B       0.099000
     15 N            8.6560    15.9580    21.7600 n          1 A1B      -0.407800
     16 O            7.1520    14.3030    21.4550 o          1 A1B      -0.584100
     17 C1           7.6780    12.0400    23.7440 ca         1 A1B      -0.068000
     18 S            9.2550    11.8910    22.9660 ss         1 A1B      -0.178000
     19 C            9.5680    10.1180    22.9640 c3         1 A1B       0.021900
     20 C3           5.6580    11.1200    24.6900 ca         1 A1B      -0.093000
     21 C2           6.8950    10.9410    24.0850 ca         1 A1B      -0.122000
     22 H19         10.5910    15.4900    16.4510 hn         1 A1B       0.314000
     23 H18         10.7030    14.3630    17.7460 hn         1 A1B       0.314000
     24 H8           5.6210    14.4920    24.8320 ha         1 A1B       0.111000
     25 H9           7.6970    15.3970    24.2670 hc         1 A1B       0.070200
     26 H10          9.0790    14.3890    23.9360 hc         1 A1B       0.070200
     27 H           11.1760    15.0980    22.1700 hc         1 A1B       0.055700
     28 H1          10.0770    14.7590    19.8270 hc         1 A1B       0.063700
     29 H20          8.5910    17.3870    20.2580 h1         1 A1B       0.076200
     30 H21          7.8430    15.8470    19.8440 h1         1 A1B       0.076200
     31 H16         11.1870    17.5520    20.3630 hc         1 A1B       0.052200
     32 H17         12.1350    16.0880    20.1290 hc         1 A1B       0.052200
     33 H15         13.1720    16.5770    22.4380 hc         1 A1B       0.037367
     34 H13         12.1160    17.9680    22.6750 hc         1 A1B       0.037367
     35 H14         12.1280    16.6580    23.8560 hc         1 A1B       0.037367
     36 H12          9.5960    17.6890    22.4080 h1         1 A1B       0.052700
     37 H11          9.6060    16.3940    23.5850 h1         1 A1B       0.052700
     38 H3          10.5640     9.9940    22.5420 h1         1 A1B       0.064700
     39 H2           9.5640     9.7070    23.9720 h1         1 A1B       0.064700
     40 H4           8.8590     9.5790    22.3380 h1         1 A1B       0.064700
     41 H6           5.0640    10.2530    24.9490 ha         1 A1B       0.112000
     42 H5           7.2350     9.9340    23.8820 ha         1 A1B       0.112000
     43 H7           4.2300    12.5410    25.4340 ha         1 A1B       0.115000
@<TRIPOS>BOND
     1     1    11 1   
     2     1    22 1   
     3     1    23 1   
     4     2     3 ar  
     5     2    20 ar  
     6     2    43 1   
     7     3     4 ar  
     8     3    24 1   
     9     4     5 1   
    10     4    17 ar  
    11     5     6 1   
    12     5    25 1   
    13     5    26 1   
    14     6    15 1   
    15     6    16 2   
    16     7    12 1   
    17     7    13 1   
    18     7    14 1   
    19     7    27 1   
    20     8     9 1   
    21     8    11 1   
    22     8    12 1   
    23     8    28 1   
    24     9    15 1   
    25     9    29 1   
    26     9    30 1   
    27    10    11 2   
    28    12    31 1   
    29    12    32 1   
    30    13    33 1   
    31    13    34 1   
    32    13    35 1   
    33    14    15 1   
    34    14    36 1   
    35    14    37 1   
    36    17    18 1   
    37    17    21 ar  
    38    18    19 1   
    39    19    38 1   
    40    19    39 1   
    41    19    40 1   
    42    20    21 ar  
    43    20    41 1   
    44    21    42 1   
@<TRIPOS>SUBSTRUCTURE
     1 A1B         1 TEMP              0 ****  ****    0 ROOT
