@<TRIPOS>MOLECULE
A1B
   43    44     1     0     0
SMALL
abcg2


@<TRIPOS>ATOM
      1 N1          23.9570    12.9720    14.7910 nt         1 A1B      -0.605000
      2 C4          28.9090    11.3890     6.5500 c6         1 A1B      -0.074400
      3 C5          28.1980    12.5310     7.2690 c6         1 A1B      -0.084400
      4 C6          27.3430    11.9930     8.4050 c6         1 A1B       0.192300
      5 C7          26.7270    13.2690    10.3380 c          1 A1B       0.643100
      6 C8          24.9330    14.9340     9.9300 c6         1 A1B       0.100000
      7 C10         23.2740    14.4460    11.7530 c6         1 A1B      -0.068400
      8 C13         25.7460    14.4980    12.1710 c6         1 A1B       0.106000
      9 O2          24.1590    15.2040    14.5470 o          1 A1B      -0.608100
     10 C12         24.1680    14.0790    14.0650 c          1 A1B       0.609100
     11 C11         24.4170    13.8540    12.5870 c6         1 A1B      -0.177700
     12 C9          23.5670    14.3420    10.2590 c6         1 A1B      -0.106400
     13 N           25.9630    14.3120    10.7500 n          1 A1B      -0.387800
     14 O1          27.4100    12.5900    11.0800 o          1 A1B      -0.546000
     15 O           26.6700    13.1020     9.0170 os         1 A1B      -0.465100
     16 C1          26.3080    10.9820     7.9170 c6         1 A1B      -0.076700
     17 C           25.4450    10.4360     9.0480 c3         1 A1B      -0.087100
     18 C3          27.9080    10.3550     6.0490 c6         1 A1B      -0.077400
     19 C2          27.0330     9.8470     7.1890 c6         1 A1B      -0.073400
     20 H20         23.7760    13.0360    15.7800 hn         1 A1B       0.315000
     21 H21         23.9800    12.0550    14.3820 hn         1 A1B       0.315000
     22 H11         29.5000    11.7850     5.7220 hc         1 A1B       0.044200
     23 H12         28.9250    13.2460     7.6630 hc         1 A1B       0.053200
     24 H13         27.5620    13.0710     6.5590 hc         1 A1B       0.053200
     25 H1          27.9920    11.5070     9.1390 h1         1 A1B       0.074700
     26 H14         24.9350    16.0040    10.1540 h1         1 A1B       0.063200
     27 H15         25.1660    14.8310     8.8750 h1         1 A1B       0.063200
     28 H18         23.1440    15.4980    12.0240 hc         1 A1B       0.054200
     29 H19         22.3360    13.9390    11.9900 hc         1 A1B       0.054200
     30 H22         25.7150    15.5710    12.3750 h1         1 A1B       0.078200
     31 H23         26.5790    14.0810    12.7310 h1         1 A1B       0.078200
     32 H2          24.4840    12.7810    12.3810 hc         1 A1B       0.058700
     33 H16         22.7970    14.8660     9.6910 hc         1 A1B       0.049700
     34 H17         23.5410    13.2960     9.9410 hc         1 A1B       0.049700
     35 H           25.6590    11.4890     7.1910 hc         1 A1B       0.055700
     36 H5          24.8300    11.2070     9.5150 hc         1 A1B       0.036367
     37 H3          24.7660     9.6710     8.6690 hc         1 A1B       0.036367
     38 H4          26.0590     9.9780     9.8260 hc         1 A1B       0.036367
     39 H8          28.4290     9.5210     5.5750 hc         1 A1B       0.041700
     40 H9          27.2740    10.8080     5.2790 hc         1 A1B       0.041700
     41 H6          27.6550     9.3030     7.9100 hc         1 A1B       0.043200
     42 H7          26.2970     9.1330     6.8140 hc         1 A1B       0.043200
     43 H10         29.6150    10.9100     7.2360 hc         1 A1B       0.044200
@<TRIPOS>BOND
     1     1    10 1   
     2     1    20 1   
     3     1    21 1   
     4     2     3 1   
     5     2    18 1   
     6     2    22 1   
     7     2    43 1   
     8     3     4 1   
     9     3    23 1   
    10     3    24 1   
    11     4    15 1   
    12     4    16 1   
    13     4    25 1   
    14     5    13 1   
    15     5    14 2   
    16     5    15 1   
    17     6    12 1   
    18     6    13 1   
    19     6    26 1   
    20     6    27 1   
    21     7    11 1   
    22     7    12 1   
    23     7    28 1   
    24     7    29 1   
    25     8    11 1   
    26     8    13 1   
    27     8    30 1   
    28     8    31 1   
    29     9    10 2   
    30    10    11 1   
    31    11    32 1   
    32    12    33 1   
    33    12    34 1   
    34    16    17 1   
    35    16    19 1   
    36    16    35 1   
    37    17    36 1   
    38    17    37 1   
    39    17    38 1   
    40    18    19 1   
    41    18    39 1   
    42    18    40 1   
    43    19    41 1   
    44    19    42 1   
@<TRIPOS>SUBSTRUCTURE
     1 A1B         1 TEMP              0 ****  ****    0 ROOT
