@<TRIPOS>MOLECULE
A1B
   31    33     1     0     0
SMALL
abcg2


@<TRIPOS>ATOM
      1 O1          19.1880    16.3780    25.0290 o          1 A1B      -0.728000
      2 C1          19.8310    15.6550    25.8160 c          1 A1B       0.734600
      3 C2          19.5530    15.8590    27.2800 cc         1 A1B      -0.184600
      4 C3          18.6940    16.7760    27.7930 cd         1 A1B       0.118900
      5 O2          18.6680    16.7170    29.1430 os         1 A1B      -0.273000
      6 C4          19.5280    15.7400    29.5090 cd         1 A1B       0.053300
      7 C5          20.0980    15.1720    28.4220 cc         1 A1B      -0.106300
      8 C6          21.0800    14.0530    28.5450 c6         1 A1B       0.005900
      9 C7          21.0370    13.4680    29.9570 c6         1 A1B      -0.070400
     10 C8          21.0230    14.5540    31.0430 c6         1 A1B      -0.022400
     11 C9          21.1840    13.9720    32.4240 ca         1 A1B      -0.057300
     12 C10         22.2860    14.3000    33.2090 ca         1 A1B      -0.107500
     13 C11         22.4460    13.7640    34.4820 ca         1 A1B      -0.116500
     14 C12         21.5000    12.8860    34.9910 ca         1 A1B      -0.125000
     15 C13         20.3960    12.5480    34.2170 ca         1 A1B      -0.116500
     16 C14         20.2420    13.0860    32.9470 ca         1 A1B      -0.107500
     17 C15         19.7480    15.4080    30.9380 c6         1 A1B      -0.077700
     18 O3          20.6780    14.7870    25.5210 o          1 A1B      -0.728000
     19 H1          18.0580    17.5150    27.3330 h4         1 A1B       0.048100
     20 H2          20.8690    13.2740    27.8120 hc         1 A1B       0.063700
     21 H3          22.0890    14.4110    28.3170 hc         1 A1B       0.063700
     22 H4          20.1450    12.8430    30.0650 hc         1 A1B       0.031700
     23 H5          21.8970    12.8120    30.1090 hc         1 A1B       0.031700
     24 H6          21.8760    15.2180    30.8570 hc         1 A1B       0.056700
     25 H7          23.0300    14.9850    32.8200 ha         1 A1B       0.114000
     26 H8          23.3110    14.0350    35.0740 ha         1 A1B       0.102500
     27 H9          21.6210    12.4670    35.9820 ha         1 A1B       0.101000
     28 H10         19.6520    11.8640    34.6050 ha         1 A1B       0.102500
     29 H11         19.3730    12.8070    32.3610 ha         1 A1B       0.114000
     30 H12         19.8550    16.3120    31.5440 hc         1 A1B       0.040200
     31 H13         18.8910    14.8610    31.3450 hc         1 A1B       0.040200
@<TRIPOS>BOND
     1     1     2 1   
     2     2     3 1   
     3     2    18 1   
     4     3     4 2   
     5     3     7 1   
     6     4     5 1   
     7     4    19 1   
     8     5     6 1   
     9     6     7 2   
    10     6    17 1   
    11     7     8 1   
    12     8     9 1   
    13     8    20 1   
    14     8    21 1   
    15     9    10 1   
    16     9    22 1   
    17     9    23 1   
    18    10    11 1   
    19    10    17 1   
    20    10    24 1   
    21    11    12 ar  
    22    11    16 ar  
    23    12    13 ar  
    24    12    25 1   
    25    13    14 ar  
    26    13    26 1   
    27    14    15 ar  
    28    14    27 1   
    29    15    16 ar  
    30    15    28 1   
    31    16    29 1   
    32    17    30 1   
    33    17    31 1   
@<TRIPOS>SUBSTRUCTURE
     1 A1B         1 TEMP              0 ****  ****    0 ROOT
