@<TRIPOS>MOLECULE
A1B
   42    45     1     0     0
SMALL
abcg2


@<TRIPOS>ATOM
      1 C1         -12.4630     7.2170    -4.8580 c          1 A1B       0.735600
      2 C2         -12.4400     7.2280    -6.3620 cc         1 A1B      -0.185600
      3 C3         -13.2620     7.9560    -7.1610 cd         1 A1B       0.116900
      4 C4         -11.9790     6.8400    -8.5120 cd         1 A1B       0.056300
      5 C5         -11.5880     6.4970    -7.2630 cc         1 A1B      -0.107300
      6 C6         -10.4630     5.5430    -7.0250 c6         1 A1B       0.006900
      7 C10        -10.1660     3.3370   -11.2290 ca         1 A1B      -0.098000
      8 C13         -8.2010     4.7810   -12.5170 ca         1 A1B      -0.152000
      9 O1         -11.6580     6.4460    -4.2970 o          1 A1B      -0.728500
     10 O2         -13.2890     7.9750    -4.3110 o          1 A1B      -0.728500
     11 O3         -12.9960     7.7320    -8.4660 os         1 A1B      -0.273000
     12 C7          -9.6580     5.3550    -8.3110 c6         1 A1B      -0.071400
     13 C8         -10.5760     5.1210    -9.5210 c6         1 A1B      -0.013400
     14 C9          -9.8500     4.6050   -10.7390 ca         1 A1B      -0.060300
     15 C11         -9.5180     2.7860   -12.3250 ca         1 A1B      -0.127000
     16 C12         -8.5280     3.5130   -12.9710 ca         1 A1B      -0.106000
     17 C14         -8.8550     5.3150   -11.4130 ca         1 A1B       0.114100
     18 O4          -8.5690     6.5910   -11.0030 os         1 A1B      -0.247200
     19 C15         -7.2740     6.9530   -10.7690 ca         1 A1B       0.133100
     20 C16         -6.3510     6.0860   -10.1970 ca         1 A1B      -0.144500
     21 C17         -5.0640     6.5380    -9.9410 ca         1 A1B      -0.088500
     22 C18         -4.6970     7.8430   -10.2430 ca         1 A1B      -0.140000
     23 C19         -5.6320     8.7010   -10.8060 ca         1 A1B      -0.088500
     24 C20         -6.9200     8.2610   -11.0750 ca         1 A1B      -0.144500
     25 C21        -11.4430     6.3600    -9.8090 c6         1 A1B      -0.076700
     26 H1         -14.0590     8.6490    -6.9460 h4         1 A1B       0.047100
     27 H2         -10.8510     4.5790    -6.6820 hc         1 A1B       0.062700
     28 H3          -9.8160     5.9060    -6.2260 hc         1 A1B       0.062700
     29 H7          -8.9800     4.5050    -8.1980 hc         1 A1B       0.035200
     30 H8          -9.0330     6.2360    -8.4770 hc         1 A1B       0.035200
     31 H9         -11.2710     4.3250    -9.2300 hc         1 A1B       0.051700
     32 H10         -9.7870     1.7970   -12.6710 ha         1 A1B       0.108000
     33 H11         -8.0160     3.1020   -13.8300 ha         1 A1B       0.106000
     34 H12         -6.6280     5.0700    -9.9450 ha         1 A1B       0.128500
     35 H13         -4.3450     5.8620    -9.4960 ha         1 A1B       0.108500
     36 H14         -3.6920     8.1880   -10.0390 ha         1 A1B       0.108000
     37 H15         -5.3590     9.7210   -11.0450 ha         1 A1B       0.108500
     38 H16         -7.6500     8.9260   -11.5180 ha         1 A1B       0.128500
     39 H17        -10.8610     7.1420   -10.3030 hc         1 A1B       0.046700
     40 H18        -12.2510     6.0900   -10.4950 hc         1 A1B       0.046700
     41 H4         -10.9360     2.7650   -10.7250 ha         1 A1B       0.118000
     42 H5          -7.4400     5.3600   -13.0250 ha         1 A1B       0.119000
@<TRIPOS>BOND
     1     1     2 1   
     2     1     9 1   
     3     1    10 1   
     4     2     3 2   
     5     2     5 1   
     6     3    11 1   
     7     3    26 1   
     8     4     5 2   
     9     4    11 1   
    10     4    25 1   
    11     5     6 1   
    12     6    12 1   
    13     6    27 1   
    14     6    28 1   
    15     7    14 ar  
    16     7    15 ar  
    17     7    41 1   
    18     8    16 ar  
    19     8    17 ar  
    20     8    42 1   
    21    12    13 1   
    22    12    29 1   
    23    12    30 1   
    24    13    14 1   
    25    13    25 1   
    26    13    31 1   
    27    14    17 ar  
    28    15    16 ar  
    29    15    32 1   
    30    16    33 1   
    31    17    18 1   
    32    18    19 1   
    33    19    20 ar  
    34    19    24 ar  
    35    20    21 ar  
    36    20    34 1   
    37    21    22 ar  
    38    21    35 1   
    39    22    23 ar  
    40    22    36 1   
    41    23    24 ar  
    42    23    37 1   
    43    24    38 1   
    44    25    39 1   
    45    25    40 1   
@<TRIPOS>SUBSTRUCTURE
     1 A1B         1 TEMP              0 ****  ****    0 ROOT
