@<TRIPOS>MOLECULE
A1B
   54    59     1     0     0
SMALL
abcg2


@<TRIPOS>ATOM
      1 C10        -58.1900     1.8340   -10.8070 ca         1 A1B       0.290000
      2 C5         -59.3760     4.5540   -13.2530 c6         1 A1B       0.208800
      3 C11        -56.3830     2.6580   -11.8630 ca         1 A1B       0.398800
      4 C12        -58.7420     0.9210    -9.8890 ca         1 A1B      -0.134000
      5 C13        -60.0880     0.9240    -9.6910 ca         1 A1B       0.192000
      6 C2         -56.2280     4.3550   -13.5100 c5         1 A1B       0.141300
      7 C6         -60.5930     4.9290   -12.4230 c6         1 A1B      -0.067400
      8 C4         -58.4920     3.6340   -12.4440 ca         1 A1B      -0.042300
      9 C9         -59.0530     2.7360   -11.4940 ca         1 A1B      -0.076000
     10 C7         -61.3440     3.7000   -11.9300 c6         1 A1B      -0.041100
     11 C8         -60.4490     2.7160   -11.2270 ca         1 A1B      -0.036300
     12 O3         -50.2140     3.9000   -12.8480 os         1 A1B      -0.429100
     13 O2         -51.5030     1.3680   -10.6750 oh         1 A1B      -0.631000
     14 C3         -57.1380     3.5750   -12.6160 ca         1 A1B      -0.164300
     15 C14        -60.9800     1.8000   -10.3410 ca         1 A1B      -0.101300
     16 C15        -62.4530     1.7400   -10.0650 c3         1 A1B      -0.049800
     17 C16        -53.7600     4.2320   -13.7660 c          1 A1B       0.575200
     18 C17        -52.5760     3.5680   -13.2790 cc         1 A1B      -0.268400
     19 C18        -52.6350     2.5840   -12.3350 cd         1 A1B       0.035800
     20 C19        -51.3410     1.9140   -11.9450 c6         1 A1B       0.121200
     21 C20        -50.9500     0.8380   -12.9860 c3         1 A1B      -0.102400
     22 C21        -51.9850    -0.2670   -13.1400 c3         1 A1B      -0.088100
     23 C22        -50.2190     2.9600   -11.9160 c          1 A1B       0.641100
     24 N          -54.9200     3.7980   -13.1700 n          1 A1B      -0.271000
     25 C          -54.9800     2.8220   -12.2220 cc         1 A1B      -0.015200
     26 O          -53.7810     5.1070   -14.6250 o          1 A1B      -0.561000
     27 C23        -51.2560     3.9970   -13.8220 c6         1 A1B       0.232800
     28 C24        -53.8680     2.1890   -11.7710 cd         1 A1B      -0.202000
     29 F          -60.5980     0.0450    -8.8150 f          1 A1B      -0.171000
     30 N2         -59.7730     3.9710   -14.5300 n8         1 A1B      -0.991200
     31 N3         -56.8510     1.8090   -10.9950 nb         1 A1B      -0.615000
     32 H3         -58.8140     5.4640   -13.4790 h1         1 A1B       0.072700
     33 H11        -58.0960     0.2320    -9.3610 ha         1 A1B       0.155000
     34 H2         -56.2480     5.4290   -13.3120 h1         1 A1B       0.085200
     35 H1         -56.4370     4.2070   -14.5720 h1         1 A1B       0.085200
     36 H8         -60.2640     5.5190   -11.5640 hc         1 A1B       0.060700
     37 H7         -61.2570     5.5620   -13.0140 hc         1 A1B       0.060700
     38 H10        -62.1450     4.0190   -11.2600 hc         1 A1B       0.060200
     39 H9         -61.8500     3.1990   -12.7640 hc         1 A1B       0.060200
     40 H15        -50.7110     0.8710   -10.4380 ho         1 A1B       0.469000
     41 H13        -63.0260     1.7460   -10.9920 hc         1 A1B       0.052700
     42 H12        -62.7360     0.8480    -9.5110 hc         1 A1B       0.052700
     43 H14        -62.7790     2.6040    -9.4820 hc         1 A1B       0.052700
     44 H16        -49.9930     0.4080   -12.6720 hc         1 A1B       0.055200
     45 H17        -50.7650     1.3000   -13.9580 hc         1 A1B       0.055200
     46 H18        -51.6120    -1.0220   -13.8320 hc         1 A1B       0.042367
     47 H20        -52.1930    -0.7610   -12.1930 hc         1 A1B       0.042367
     48 H19        -52.9260     0.1090   -13.5420 hc         1 A1B       0.042367
     49 H21        -50.9710     3.4140   -14.7030 h1         1 A1B       0.080700
     50 H22        -51.2830     5.0430   -14.1230 h1         1 A1B       0.080700
     51 H23        -53.9490     1.4180   -11.0210 ha         1 A1B       0.238000
     52 H6         -58.9570     3.8150   -15.1090 hn         1 A1B       0.402000
     53 H5         -60.1940     3.0600   -14.3930 hn         1 A1B       0.402000
     54 O4         -49.3420     2.9310   -11.0970 o          1 A1B      -0.490000
@<TRIPOS>BOND
     1     1     4 ar  
     2     1     9 ar  
     3     1    31 ar  
     4     2     7 1   
     5     2     8 1   
     6     2    30 1   
     7     2    32 1   
     8     3    14 ar  
     9     3    25 1   
    10     3    31 ar  
    11     4     5 ar  
    12     4    33 1   
    13     5    15 ar  
    14     5    29 1   
    15     6    14 1   
    16     6    24 1   
    17     6    34 1   
    18     6    35 1   
    19     7    10 1   
    20     7    36 1   
    21     7    37 1   
    22     8     9 ar  
    23     8    14 ar  
    24     9    11 ar  
    25    10    11 1   
    26    10    38 1   
    27    10    39 1   
    28    11    15 ar  
    29    12    23 1   
    30    12    27 1   
    31    13    20 1   
    32    13    40 1   
    33    15    16 1   
    34    16    41 1   
    35    16    42 1   
    36    16    43 1   
    37    17    18 1   
    38    17    24 1   
    39    17    26 2   
    40    18    19 2   
    41    18    27 1   
    42    19    20 1   
    43    19    28 1   
    44    20    21 1   
    45    20    23 1   
    46    21    22 1   
    47    21    44 1   
    48    21    45 1   
    49    22    46 1   
    50    22    47 1   
    51    22    48 1   
    52    23    54 2   
    53    24    25 1   
    54    25    28 2   
    55    27    49 1   
    56    27    50 1   
    57    28    51 1   
    58    30    52 1   
    59    30    53 1   
@<TRIPOS>SUBSTRUCTURE
     1 A1B         1 TEMP              0 ****  ****    0 ROOT
