@<TRIPOS>MOLECULE
A1B
   50    53     1     0     0
SMALL
abcg2


@<TRIPOS>ATOM
      1 C1          -7.1130     8.9130     5.2520 ca         1 A1B      -0.131300
      2 C2          -8.3770     9.4720     4.6280 c3         1 A1B       0.223100
      3 C3          -9.7110     9.7080     6.6450 c3         1 A1B       0.156100
      4 C4          -9.9330     7.7310     5.3090 c3         1 A1B       0.156100
      5 C5          -6.4870     9.6010     6.2770 ca         1 A1B      -0.092000
      6 C6          -5.4660     7.1020     5.4280 ca         1 A1B      -0.102000
      7 C15          0.3900     8.5050     9.8860 ca         1 A1B       0.342300
      8 C16          0.8700     8.7440     8.6060 ca         1 A1B      -0.154000
      9 C17          1.9030     9.6570     8.4560 ca         1 A1B      -0.072000
     10 C18          2.4190    10.2830     9.5760 ca         1 A1B      -0.163000
     11 O           -2.4020     9.5800     9.9900 o          1 A1B      -0.540000
     12 C11         -2.5890     8.6800     9.1780 c          1 A1B       0.558200
     13 N3          -1.7760     7.5660     9.1530 n          1 A1B      -0.136800
     14 C14         -0.7080     7.5020    10.1370 c3         1 A1B       0.058700
     15 N4           0.8900     9.1020    10.9630 nb         1 A1B      -0.669000
     16 C19          1.8850     9.9730    10.8250 ca         1 A1B       0.363300
     17 C20          2.4200    10.6210    12.0680 c3         1 A1B      -0.145400
     18 N2          -1.8480     6.5200     8.3150 nc         1 A1B      -0.449300
     19 C13         -2.7840     6.5020     7.4260 cd         1 A1B       0.419500
     20 C12         -3.7270     7.5480     7.3140 cd         1 A1B      -0.195800
     21 C7          -4.8520     7.7950     6.4730 ca         1 A1B      -0.058800
     22 C           -6.5720     7.6790     4.8550 ca         1 A1B       0.154000
     23 F           -7.1680     7.0260     3.8390 f          1 A1B      -0.181000
     24 C10         -3.6270     8.6260     8.1780 cc         1 A1B      -0.097300
     25 N1          -4.6120     9.5260     7.9210 na         1 A1B      -0.041700
     26 C9          -4.8880    10.7850     8.5810 c3         1 A1B       0.052900
     27 C8          -5.3700     9.0360     6.8860 ca         1 A1B      -0.053200
     28 N           -9.6100     9.1400     5.3190 n3         1 A1B      -0.723600
     29 H           -8.4680     9.1430     3.5920 h1         1 A1B       0.064200
     30 H1          -8.2910    10.5610     4.6020 h1         1 A1B       0.064200
     31 H4         -10.7290     9.5800     7.0180 h1         1 A1B       0.032200
     32 H2          -9.0320     9.2560     7.3820 h1         1 A1B       0.032200
     33 H3          -9.5010    10.7780     6.6120 h1         1 A1B       0.032200
     34 H6         -10.9380     7.5880     5.7090 h1         1 A1B       0.032200
     35 H7          -9.9270     7.3490     4.2880 h1         1 A1B       0.032200
     36 H5          -9.2530     7.1110     5.9110 h1         1 A1B       0.032200
     37 H8          -6.8700    10.5650     6.5880 ha         1 A1B       0.123000
     38 H9          -5.0910     6.1500     5.0740 ha         1 A1B       0.138000
     39 H16          0.4540     8.2330     7.7480 ha         1 A1B       0.128000
     40 H17          2.3020     9.8730     7.4730 ha         1 A1B       0.117000
     41 H18          3.2230    11.0030     9.4910 ha         1 A1B       0.121000
     42 H15         -1.1100     7.6540    11.1380 h1         1 A1B       0.086700
     43 H14         -0.3090     6.4890    10.0900 h1         1 A1B       0.086700
     44 H20          1.8280    10.3410    12.9360 hc         1 A1B       0.051367
     45 H19          3.4540    10.3230    12.2490 hc         1 A1B       0.051367
     46 H21          2.4130    11.7080    11.9790 hc         1 A1B       0.051367
     47 H13         -2.8040     5.6380     6.7750 h4         1 A1B       0.047800
     48 H12         -4.1820    10.9330     9.3890 h1         1 A1B       0.065367
     49 H10         -4.7960    11.6090     7.8750 h1         1 A1B       0.065367
     50 H11         -5.8980    10.7810     8.9880 h1         1 A1B       0.065367
@<TRIPOS>BOND
     1     1     2 1   
     2     1     5 ar  
     3     1    22 ar  
     4     2    28 1   
     5     2    29 1   
     6     2    30 1   
     7     3    28 1   
     8     3    31 1   
     9     3    32 1   
    10     3    33 1   
    11     4    28 1   
    12     4    34 1   
    13     4    35 1   
    14     4    36 1   
    15     5    27 ar  
    16     5    37 1   
    17     6    21 ar  
    18     6    22 ar  
    19     6    38 1   
    20     7     8 ar  
    21     7    14 1   
    22     7    15 ar  
    23     8     9 ar  
    24     8    39 1   
    25     9    10 ar  
    26     9    40 1   
    27    10    16 ar  
    28    10    41 1   
    29    11    12 2   
    30    12    13 1   
    31    12    24 1   
    32    13    14 1   
    33    13    18 1   
    34    14    42 1   
    35    14    43 1   
    36    15    16 ar  
    37    16    17 1   
    38    17    44 1   
    39    17    45 1   
    40    17    46 1   
    41    18    19 2   
    42    19    20 1   
    43    19    47 1   
    44    20    21 1   
    45    20    24 2   
    46    21    27 ar  
    47    22    23 1   
    48    24    25 1   
    49    25    26 1   
    50    25    27 1   
    51    26    48 1   
    52    26    49 1   
    53    26    50 1   
@<TRIPOS>SUBSTRUCTURE
     1 A1B         1 TEMP              0 ****  ****    0 ROOT
