@<TRIPOS>MOLECULE
A1B
   53    57     1     0     0
SMALL
abcg2


@<TRIPOS>ATOM
      1 C15        155.6510   122.1780   177.0940 c          1 A1B       0.622700
      2 C02        152.7960   122.9150   184.0820 c          1 A1B       0.592600
      3 C03        151.5230   123.2320   183.3660 ca         1 A1B      -0.132600
      4 C04        151.4110   124.2840   182.4580 ca         1 A1B      -0.070000
      5 C05        150.1730   124.6710   181.9640 ca         1 A1B      -0.125000
      6 C06        149.0530   123.9780   182.3800 ca         1 A1B       0.185000
      7 C08        149.1290   122.9130   183.2580 ca         1 A1B      -0.146000
      8 C09        150.3700   122.5580   183.7590 ca         1 A1B      -0.042000
      9 C11        153.6470   123.7580   181.1760 ca         1 A1B      -0.120000
     10 C12        153.8410   123.7420   179.8030 ca         1 A1B      -0.098000
     11 C13        154.4550   122.6570   179.1870 ca         1 A1B      -0.042000
     12 C16        155.6140   122.4060   175.6180 ca         1 A1B      -0.145600
     13 C17        156.2860   121.4670   174.8260 ca         1 A1B      -0.051000
     14 C18        156.2660   121.6660   173.4660 ca         1 A1B      -0.018400
     15 C21        156.4950   121.5910   171.2440 c          1 A1B       0.687100
     16 C24        155.6290   122.7630   172.9030 ca         1 A1B       0.075100
     17 C25        154.9820   123.7080   173.6580 ca         1 A1B      -0.086000
     18 C26        154.9840   123.5070   175.0380 ca         1 A1B      -0.091000
     19 C28        154.8370   121.5650   179.9660 ca         1 A1B      -0.080000
     20 C29        154.6240   121.5840   181.3320 ca         1 A1B      -0.114000
     21 C30        154.0480   122.6820   181.9640 ca         1 A1B       0.079600
     22 C33        155.6990   123.7470   184.6640 c1         1 A1B      -0.173100
     23 C34        156.1520   124.7830   185.0750 c1         1 A1B      -0.098100
     24 C35        156.6980   126.0360   185.5700 c3         1 A1B      -0.009000
     25 F07        147.8580   124.3470   181.9090 f          1 A1B      -0.171000
     26 N14        154.6060   122.6870   177.7950 ns         1 A1B      -0.151000
     27 N19        156.7940   120.9540   172.4100 n          1 A1B      -0.311000
     28 N31        153.9380   122.6950   183.3720 n          1 A1B      -0.321000
     29 O01        152.7880   122.8410   185.2970 o          1 A1B      -0.526000
     30 O22        155.7740   122.7110   171.5550 os         1 A1B      -0.281200
     31 O23        156.7750   121.2930   170.1160 o          1 A1B      -0.496000
     32 O27        156.5600   121.5540   177.6100 o          1 A1B      -0.576100
     33 S10        152.8620   125.1530   181.9280 ss         1 A1B       0.058000
     34 H1         150.0860   125.4890   181.2620 ha         1 A1B       0.146000
     35 H2         148.2360   122.3820   183.5590 ha         1 A1B       0.139000
     36 H3         150.4380   121.7470   184.4720 ha         1 A1B       0.135000
     37 H4         153.5110   124.5870   179.2110 ha         1 A1B       0.128000
     38 H5         156.7860   120.6180   175.2690 ha         1 A1B       0.150000
     39 H6         157.8120   119.3840   171.5210 h1         1 A1B       0.057367
     40 H7         158.4520   119.8820   173.0930 h1         1 A1B       0.057367
     41 H8         156.9400   118.9570   172.9990 h1         1 A1B       0.057367
     42 H9         154.5020   124.5700   173.2160 ha         1 A1B       0.144000
     43 H10        154.5020   124.2570   175.6510 ha         1 A1B       0.118000
     44 H11        155.2700   120.6860   179.5170 ha         1 A1B       0.143000
     45 H12        154.9080   120.7170   181.9150 ha         1 A1B       0.127000
     46 H13        154.9740   121.7920   184.9630 h1         1 A1B       0.072700
     47 H14        155.9050   122.0200   183.5030 h1         1 A1B       0.072700
     48 H15        156.9380   126.7120   184.7500 hc         1 A1B       0.053033
     49 H16        155.9890   126.5440   186.2260 hc         1 A1B       0.053033
     50 H17        157.6130   125.8640   186.1380 hc         1 A1B       0.053033
     51 H18        153.8980   123.2000   177.2920 hn         1 A1B       0.159000
     52 C20        157.5420   119.7250   172.5160 c3         1 A1B       0.105300
     53 C32        155.1640   122.4910   184.1490 c3         1 A1B       0.202100
@<TRIPOS>BOND
     1     1    12 1   
     2     1    26 1   
     3     1    32 2   
     4     2     3 1   
     5     2    28 1   
     6     2    29 2   
     7     3     4 ar  
     8     3     8 ar  
     9     4     5 ar  
    10     4    33 1   
    11     5     6 ar  
    12     5    34 1   
    13     6     7 ar  
    14     6    25 1   
    15     7     8 ar  
    16     7    35 1   
    17     8    36 1   
    18     9    10 ar  
    19     9    21 ar  
    20     9    33 1   
    21    10    11 ar  
    22    10    37 1   
    23    11    19 ar  
    24    11    26 1   
    25    12    13 ar  
    26    12    18 ar  
    27    13    14 ar  
    28    13    38 1   
    29    14    16 ar  
    30    14    27 1   
    31    15    27 1   
    32    15    30 1   
    33    15    31 2   
    34    16    17 ar  
    35    16    30 1   
    36    17    18 ar  
    37    17    42 1   
    38    18    43 1   
    39    19    20 ar  
    40    19    44 1   
    41    20    21 ar  
    42    20    45 1   
    43    21    28 1   
    44    22    23 3   
    45    22    53 1   
    46    23    24 1   
    47    24    48 1   
    48    24    49 1   
    49    24    50 1   
    50    26    51 1   
    51    27    52 1   
    52    28    53 1   
    53    39    52 1   
    54    40    52 1   
    55    41    52 1   
    56    46    53 1   
    57    47    53 1   
@<TRIPOS>SUBSTRUCTURE
     1 A1B         1 TEMP              0 ****  ****    0 ROOT
