@<TRIPOS>MOLECULE
A1B
   33    35     1     0     0
SMALL
abcg2


@<TRIPOS>ATOM
      1 C5          45.0540    70.8740   226.1550 ca         1 A1B       0.013000
      2 C2          45.4480    73.2180   225.9880 cc         1 A1B       0.102000
      3 C3          43.2570    72.5440   226.6190 c3         1 A1B      -0.064400
      4 C4          43.2330    73.3510   227.9010 c          1 A1B       0.590900
      5 C6          44.2610    69.7620   226.4440 ca         1 A1B      -0.165000
      6 C1          45.8010    75.4900   225.8740 c          1 A1B       0.733400
      7 N           47.1100    75.2380   225.4530 ns         1 A1B      -0.500500
      8 C           47.6970    74.0190   225.2790 c          1 A1B       0.485500
      9 O           48.8430    73.8780   224.9210 o          1 A1B      -0.483000
     10 C10         46.6250    66.8630   225.7530 c3         1 A1B      -0.045800
     11 C11         46.8730    69.3460   225.6160 ca         1 A1B      -0.015000
     12 C12         46.3870    70.6580   225.7400 ca         1 A1B       0.162000
     13 C13         46.7860    72.8880   225.5760 cc         1 A1B       0.216500
     14 C7          44.7570    68.4770   226.3220 ca         1 A1B       0.001700
     15 C8          43.8750    67.3130   226.6470 c3         1 A1B      -0.061800
     16 C9          46.0900    68.2550   225.8940 ca         1 A1B      -0.103300
     17 N1          44.9870    74.4270   226.1290 nd         1 A1B      -0.460400
     18 N2          44.6160    72.1780   226.2490 na         1 A1B      -0.017000
     19 N3          47.2220    71.6830   225.4560 nd         1 A1B      -0.518000
     20 O1          42.2880    74.0200   228.2190 o          1 A1B      -0.487100
     21 O2          45.4320    76.6390   225.9950 o          1 A1B      -0.495000
     22 H2          42.7930    73.1110   225.8120 h1         1 A1B       0.093200
     23 H3          42.6580    71.6500   226.7720 h1         1 A1B       0.093200
     24 H1          44.1140    73.2250   228.5550 h4         1 A1B       0.000200
     25 H4          43.2390    69.8700   226.7760 ha         1 A1B       0.127000
     26 H           47.6820    76.0530   225.2670 hn         1 A1B       0.341500
     27 H9          46.0290    66.2780   225.0510 hc         1 A1B       0.049367
     28 H10         47.6520    66.8730   225.3940 hc         1 A1B       0.049367
     29 H8          46.6060    66.3310   226.7060 hc         1 A1B       0.049367
     30 H11         47.9000    69.2230   225.2930 ha         1 A1B       0.145000
     31 H6          43.7390    66.6690   225.7750 hc         1 A1B       0.054367
     32 H7          44.3190    66.6940   227.4280 hc         1 A1B       0.054367
     33 H5          42.8930    67.6360   226.9850 hc         1 A1B       0.054367
@<TRIPOS>BOND
     1     1     5 ar  
     2     1    12 ar  
     3     1    18 1   
     4     2    13 1   
     5     2    17 2   
     6     2    18 1   
     7     3     4 1   
     8     3    18 1   
     9     3    22 1   
    10     3    23 1   
    11     4    20 2   
    12     4    24 1   
    13     5    14 ar  
    14     5    25 1   
    15     6     7 1   
    16     6    17 1   
    17     6    21 2   
    18     7     8 1   
    19     7    26 1   
    20     8     9 2   
    21     8    13 1   
    22    10    16 1   
    23    10    27 1   
    24    10    28 1   
    25    10    29 1   
    26    11    12 ar  
    27    11    16 ar  
    28    11    30 1   
    29    12    19 1   
    30    13    19 2   
    31    14    15 1   
    32    14    16 ar  
    33    15    31 1   
    34    15    32 1   
    35    15    33 1   
@<TRIPOS>SUBSTRUCTURE
     1 A1B         1 TEMP              0 ****  ****    0 ROOT
