@<TRIPOS>MOLECULE
A1B
   41    43     1     0     0
SMALL
abcg2


@<TRIPOS>ATOM
      1 C4          34.8120    15.6220    10.2310 ca         1 A1B       0.199500
      2 C5          36.0050    15.6750     9.5380 ca         1 A1B      -0.144500
      3 C6          36.5410    16.9240     9.2510 ca         1 A1B      -0.090600
      4 C7          35.8850    18.0900     9.6270 ca         1 A1B      -0.144500
      5 C8          37.7880    17.0080     8.4200 c          1 A1B       0.617700
      6 C13         41.0590    17.0180    11.9010 ca         1 A1B      -0.066000
      7 C15         41.7850    14.7560    12.0690 ca         1 A1B       0.339900
      8 C17         39.9810    15.2310    10.7680 ca         1 A1B       0.349900
      9 C20         42.0600    18.9580     9.1300 ca         1 A1B      -0.095000
     10 C21         42.7050    20.1460     9.4400 ca         1 A1B      -0.104000
     11 C22         42.0800    21.3570     9.1980 ca         1 A1B      -0.091000
     12 C24         40.1730    20.1770     8.3150 ca         1 A1B       0.128000
     13 C2          34.6830    17.9740    10.2980 ca         1 A1B       0.199500
     14 C3          34.1210    16.7540    10.6210 ca         1 A1B      -0.189000
     15 O9          37.7280    16.7180     7.2380 o          1 A1B      -0.569100
     16 N10         38.9140    17.4330     9.0350 n          1 A1B      -0.402800
     17 C11         39.0510    17.5630    10.4750 c3         1 A1B       0.153300
     18 C12         40.0490    16.5920    11.0510 ca         1 A1B      -0.167300
     19 C14         41.9440    16.0870    12.4230 ca         1 A1B      -0.165000
     20 N16         40.8230    14.3310    11.2570 nb         1 A1B      -0.661000
     21 C18         40.1180    17.6440     8.2450 c3         1 A1B       0.138300
     22 C19         40.7890    18.9530     8.5690 ca         1 A1B      -0.090300
     23 C23         40.8140    21.3710     8.6330 ca         1 A1B       0.113000
     24 CL26        40.0470    22.8830     8.3270 cl         1 A1B      -0.168000
     25 F27         34.3000    14.4250    10.5360 f          1 A1B      -0.166500
     26 H1          36.5110    14.7640     9.2440 ha         1 A1B       0.147500
     27 H2          36.2970    19.0660     9.4050 ha         1 A1B       0.147500
     28 H3          41.1570    18.0690    12.1470 ha         1 A1B       0.121000
     29 H4          42.4620    14.0020    12.4560 h4         1 A1B       0.022100
     30 H5          39.2060    14.8500    10.1080 h4         1 A1B       0.022100
     31 H6          42.5500    18.0130     9.3260 ha         1 A1B       0.124000
     32 H7          43.6940    20.1310     9.8750 ha         1 A1B       0.125000
     33 H8          42.5690    22.2900     9.4410 ha         1 A1B       0.134000
     34 H9          33.1820    16.6880    11.1550 ha         1 A1B       0.153000
     35 H10         39.3470    18.5830    10.7290 h1         1 A1B       0.065700
     36 H11         38.0810    17.4020    10.9420 h1         1 A1B       0.065700
     37 H12         42.7450    16.3840    13.0860 ha         1 A1B       0.126000
     38 H13         39.8470    17.6060     7.1910 h1         1 A1B       0.075700
     39 H14         40.8270    16.8320     8.4180 h1         1 A1B       0.075700
     40 F1          34.0350    19.0880    10.6520 f          1 A1B      -0.166500
     41 CL25        38.6130    20.2190     7.5840 cl         1 A1B      -0.162000
@<TRIPOS>BOND
     1     1     2 ar  
     2     1    14 ar  
     3     1    25 1   
     4     2     3 ar  
     5     2    26 1   
     6     3     4 ar  
     7     3     5 1   
     8     4    13 ar  
     9     4    27 1   
    10     5    15 2   
    11     5    16 1   
    12     6    18 ar  
    13     6    19 ar  
    14     6    28 1   
    15     7    19 ar  
    16     7    20 ar  
    17     7    29 1   
    18     8    18 ar  
    19     8    20 ar  
    20     8    30 1   
    21     9    10 ar  
    22     9    22 ar  
    23     9    31 1   
    24    10    11 ar  
    25    10    32 1   
    26    11    23 ar  
    27    11    33 1   
    28    12    22 ar  
    29    12    23 ar  
    30    12    41 1   
    31    13    14 ar  
    32    13    40 1   
    33    14    34 1   
    34    16    17 1   
    35    16    21 1   
    36    17    18 1   
    37    17    35 1   
    38    17    36 1   
    39    19    37 1   
    40    21    22 1   
    41    21    38 1   
    42    21    39 1   
    43    23    24 1   
@<TRIPOS>SUBSTRUCTURE
     1 A1B         1 TEMP              0 ****  ****    0 ROOT
