@<TRIPOS>MOLECULE
A1B
   40    39     1     0     0
SMALL
abcg2


@<TRIPOS>ATOM
      1 C02        212.3580   184.0750   208.3410 c          1 A1B       0.732000
      2 C03        212.2190   182.9990   207.2370 c3         1 A1B      -0.199700
      3 C04        212.4460   181.6080   207.8440 c3         1 A1B      -0.056400
      4 C05        212.3990   180.4430   206.8460 c3         1 A1B      -0.073400
      5 C06        211.0380   179.7590   206.7570 c3         1 A1B      -0.105400
      6 C07        210.9910   178.7230   205.6410 c3         1 A1B       0.113000
      7 C09        208.6670   178.6620   204.8830 c          1 A1B       0.643100
      8 C11        206.2860   178.2920   204.4490 c3         1 A1B       0.226000
      9 C12        206.3400   178.4210   202.9310 c3         1 A1B      -0.107100
     10 C13        205.3870   177.1230   204.8320 c3         1 A1B      -0.107100
     11 C14        205.7770   179.5700   205.1070 c3         1 A1B      -0.107100
     12 C16        210.8690   183.1090   206.5490 c3         1 A1B       0.182600
     13 N08        209.7090   178.0700   205.5010 ns         1 A1B      -0.501900
     14 O01        213.3390   184.8420   208.2750 o          1 A1B      -0.735500
     15 O10        207.5740   177.9030   204.9900 os         1 A1B      -0.488100
     16 O15        208.7370   179.7260   204.2980 o          1 A1B      -0.543000
     17 O17        210.7120   184.4270   206.0600 oh         1 A1B      -0.644000
     18 H2         212.9990   183.1620   206.4840 hc         1 A1B       0.038700
     19 H3         211.7160   181.4360   208.6400 hc         1 A1B       0.043200
     20 H4         213.4240   181.6190   208.3320 hc         1 A1B       0.043200
     21 H5         213.1420   179.6900   207.1250 hc         1 A1B       0.022700
     22 H6         212.6990   180.7980   205.8540 hc         1 A1B       0.022700
     23 H7         210.2490   180.4940   206.5920 hc         1 A1B       0.049200
     24 H8         210.8110   179.2750   207.7120 hc         1 A1B       0.049200
     25 H9         211.7340   177.9450   205.8230 h1         1 A1B       0.048700
     26 H10        211.2580   179.1900   204.6910 h1         1 A1B       0.048700
     27 H11        206.9230   179.2800   202.6060 hc         1 A1B       0.046811
     28 H12        206.7600   177.5220   202.4770 hc         1 A1B       0.046811
     29 H13        205.3260   178.5410   202.5470 hc         1 A1B       0.046811
     30 H14        205.3430   176.9930   205.9140 hc         1 A1B       0.046811
     31 H15        204.3730   177.3040   204.4750 hc         1 A1B       0.046811
     32 H16        205.7360   176.1910   204.3850 hc         1 A1B       0.046811
     33 H17        205.7860   179.4770   206.1940 hc         1 A1B       0.046811
     34 H18        206.3600   180.4440   204.8260 hc         1 A1B       0.046811
     35 H19        204.7460   179.7430   204.7990 hc         1 A1B       0.046811
     36 H20        210.0780   182.8500   207.2660 h1         1 A1B      -0.001800
     37 H21        210.8030   182.3870   205.7240 h1         1 A1B      -0.001800
     38 H22        209.5380   177.2380   206.0420 hn         1 A1B       0.314500
     39 H23        209.8540   184.4840   205.6310 ho         1 A1B       0.407000
     40 OXT        211.4800   184.0660   209.2290 o          1 A1B      -0.735500
@<TRIPOS>BOND
     1     1     2 1   
     2     1    14 1   
     3     1    40 1   
     4     2     3 1   
     5     2    12 1   
     6     2    18 1   
     7     3     4 1   
     8     3    19 1   
     9     3    20 1   
    10     4     5 1   
    11     4    21 1   
    12     4    22 1   
    13     5     6 1   
    14     5    23 1   
    15     5    24 1   
    16     6    13 1   
    17     6    25 1   
    18     6    26 1   
    19     7    13 1   
    20     7    15 1   
    21     7    16 2   
    22     8     9 1   
    23     8    10 1   
    24     8    11 1   
    25     8    15 1   
    26     9    27 1   
    27     9    28 1   
    28     9    29 1   
    29    10    30 1   
    30    10    31 1   
    31    10    32 1   
    32    11    33 1   
    33    11    34 1   
    34    11    35 1   
    35    12    17 1   
    36    12    36 1   
    37    12    37 1   
    38    13    38 1   
    39    17    39 1   
@<TRIPOS>SUBSTRUCTURE
     1 A1B         1 TEMP              0 ****  ****    0 ROOT
