@<TRIPOS>MOLECULE
A1B
   64    67     1     0     0
SMALL
abcg2


@<TRIPOS>ATOM
      1 C11        118.5970   137.0110   160.5130 cc         1 A1B       0.337500
      2 C12        118.9630   136.5820   159.2700 cd         1 A1B      -0.255000
      3 C05        119.7910   135.3570   164.2610 ca         1 A1B      -0.195300
      4 C06        118.8410   136.3710   164.2080 ca         1 A1B      -0.065000
      5 C07        118.4500   136.8950   162.9880 ca         1 A1B      -0.097000
      6 C08        118.9940   136.4170   161.7950 ca         1 A1B      -0.081500
      7 C09        119.9330   135.3870   161.8620 ca         1 A1B      -0.097000
      8 C10        120.3280   134.8600   163.0790 ca         1 A1B      -0.065000
      9 C14        117.5770   138.5560   159.3160 cd         1 A1B       0.423700
     10 C15        116.7180   139.7370   158.9850 c3         1 A1B       0.072700
     11 C19        118.6050   141.8180   156.4500 c6         1 A1B      -0.167700
     12 C20        118.7090   143.3270   156.7080 c6         1 A1B      -0.067400
     13 C21        119.1510   144.0700   155.4520 c6         1 A1B      -0.102400
     14 C22        120.4250   143.4610   154.8830 c6         1 A1B       0.097000
     15 C24        119.9190   141.3000   155.8510 c6         1 A1B       0.099000
     16 C27        120.3060   142.3800   152.2130 c3         1 A1B       0.087600
     17 C29        121.2730   140.9940   150.5540 c6         1 A1B       0.164300
     18 C30        120.8350   139.8300   149.6860 c6         1 A1B      -0.063400
     19 C31        122.0620   139.0010   149.2820 c6         1 A1B      -0.069400
     20 C32        123.2960   139.8950   149.1030 c6         1 A1B       0.156800
     21 C34        122.1980   141.9360   149.7570 c6         1 A1B       0.129800
     22 N16        117.1440   140.4090   157.7850 ns         1 A1B      -0.515900
     23 N23        120.2400   142.0390   154.6450 n          1 A1B      -0.410800
     24 N33        122.8600   141.2130   148.6810 n7         1 A1B      -0.860400
     25 N35        117.8050   138.1310   160.5100 nc         1 A1B      -0.633000
     26 O26        119.7870   140.2980   153.2770 o          1 A1B      -0.585100
     27 O28        120.1280   141.6870   151.0200 os         1 A1B      -0.426000
     28 S13        118.3100   137.6090   158.0700 ss         1 A1B       0.001600
     29 H1         119.5780   135.7380   159.0000 h4         1 A1B       0.162000
     30 H2         118.4020   136.7710   165.1130 ha         1 A1B       0.129000
     31 H3         117.7180   137.6900   162.9630 ha         1 A1B       0.129000
     32 H4         120.3820   134.9910   160.9610 ha         1 A1B       0.129000
     33 H5         121.0640   134.0690   163.0890 ha         1 A1B       0.129000
     34 H6         116.7150   140.4080   159.8450 h1         1 A1B       0.074700
     35 H7         115.6910   139.4040   158.8290 h1         1 A1B       0.074700
     36 H8         117.8060   141.6360   155.7230 hc         1 A1B       0.061700
     37 H9         119.4390   143.5010   157.5040 hc         1 A1B       0.056700
     38 H10        117.7520   143.7150   157.0610 hc         1 A1B       0.056700
     39 H11        119.3240   145.1230   155.6840 hc         1 A1B       0.051200
     40 H12        118.3630   144.0340   154.6930 hc         1 A1B       0.051200
     41 H13        121.2450   143.5800   155.5980 h1         1 A1B       0.053200
     42 H14        120.7290   143.9760   153.9760 h1         1 A1B       0.053200
     43 H15        119.8560   140.2380   155.6240 h1         1 A1B       0.076200
     44 H16        120.7310   141.4430   156.5690 h1         1 A1B       0.076200
     45 H17        121.2960   142.8500   152.2760 h1         1 A1B       0.058200
     46 H18        119.5760   143.1960   152.2340 h1         1 A1B       0.058200
     47 H19        121.8280   140.5860   151.4090 h1         1 A1B       0.041700
     48 H20        120.3220   140.2090   148.7990 hc         1 A1B       0.061200
     49 H21        120.1200   139.2100   150.2300 hc         1 A1B       0.061200
     50 H22        121.8450   138.4660   148.3570 hc         1 A1B       0.043700
     51 H23        122.2700   138.2440   150.0410 hc         1 A1B       0.043700
     52 H24        123.9560   139.4790   148.3390 h1         1 A1B       0.028200
     53 H25        123.8820   139.9200   150.0360 h1         1 A1B       0.028200
     54 H26        122.9110   142.4130   150.4460 h1         1 A1B       0.033700
     55 H27        121.5870   142.7330   149.3240 h1         1 A1B       0.033700
     56 H28        116.5070   140.4590   157.0070 hn         1 A1B       0.326500
     57 H29        123.6450   141.7530   148.3430 hn         1 A1B       0.413000
     58 C02        120.1970   134.7910   165.5850 c3         1 A1B       0.357300
     59 C17        118.3100   141.0840   157.7390 c          1 A1B       0.597100
     60 C25        120.0830   141.4730   153.4280 c          1 A1B       0.565100
     61 F01        121.3850   134.1780   165.5350 f          1 A1B      -0.114667
     62 F03        120.2870   135.7360   166.5290 f          1 A1B      -0.114667
     63 F04        119.3120   133.8870   166.0330 f          1 A1B      -0.114667
     64 O18        119.0860   141.0950   158.6830 o          1 A1B      -0.583100
@<TRIPOS>BOND
     1     1     2 2   
     2     1     6 1   
     3     1    25 1   
     4     2    28 1   
     5     2    29 1   
     6     3     4 ar  
     7     3     8 ar  
     8     3    58 1   
     9     4     5 ar  
    10     4    30 1   
    11     5     6 ar  
    12     5    31 1   
    13     6     7 ar  
    14     7     8 ar  
    15     7    32 1   
    16     8    33 1   
    17     9    10 1   
    18     9    25 2   
    19     9    28 1   
    20    10    22 1   
    21    10    34 1   
    22    10    35 1   
    23    11    12 1   
    24    11    15 1   
    25    11    36 1   
    26    11    59 1   
    27    12    13 1   
    28    12    37 1   
    29    12    38 1   
    30    13    14 1   
    31    13    39 1   
    32    13    40 1   
    33    14    23 1   
    34    14    41 1   
    35    14    42 1   
    36    15    23 1   
    37    15    43 1   
    38    15    44 1   
    39    16    27 1   
    40    16    45 1   
    41    16    46 1   
    42    16    60 1   
    43    17    18 1   
    44    17    21 1   
    45    17    27 1   
    46    17    47 1   
    47    18    19 1   
    48    18    48 1   
    49    18    49 1   
    50    19    20 1   
    51    19    50 1   
    52    19    51 1   
    53    20    24 1   
    54    20    52 1   
    55    20    53 1   
    56    21    24 1   
    57    21    54 1   
    58    21    55 1   
    59    22    56 1   
    60    22    59 1   
    61    23    60 1   
    62    24    57 1   
    63    26    60 2   
    64    58    61 1   
    65    58    62 1   
    66    58    63 1   
    67    59    64 2   
@<TRIPOS>SUBSTRUCTURE
     1 A1B         1 TEMP              0 ****  ****    0 ROOT
