@<TRIPOS>MOLECULE
A1B
   36    39     1     0     0
SMALL
abcg2


@<TRIPOS>ATOM
      1 N1          -5.2690     5.7650   -15.3010 nv         1 A1B      -0.991200
      2 N3          -9.1210     4.7690   -13.3190 ns         1 A1B      -0.143000
      3 C4         -10.0020     4.9940   -17.4920 ca         1 A1B      -0.074000
      4 C5          -9.8040     5.1170   -16.1100 ca         1 A1B      -0.129000
      5 C6          -8.5460     5.3450   -15.5750 ca         1 A1B      -0.074600
      6 C7          -8.3590     5.5560   -14.1100 c          1 A1B       0.626700
      7 C8          -9.1390     4.7850   -11.9110 ca         1 A1B      -0.039000
      8 C10         -9.1710     5.9490    -9.7980 ca         1 A1B      -0.074000
      9 C13         -9.2030     3.5590   -11.2470 ca         1 A1B      -0.128000
     10 C15         -9.3090     4.4180    -7.6780 c5         1 A1B       0.210100
     11 C1          -6.0400     5.6520   -16.4100 cc         1 A1B       0.596800
     12 N2          -5.5270     5.6390   -17.6080 nd         1 A1B      -0.385700
     13 O1          -6.5550     5.4170   -18.5080 os         1 A1B      -0.109100
     14 C2          -7.6990     5.3110   -17.8320 ca         1 A1B       0.091100
     15 C3          -8.9540     5.0850   -18.3840 ca         1 A1B      -0.103000
     16 O2          -7.5780     6.3940   -13.6860 o          1 A1B      -0.597100
     17 C9          -9.1300     5.9760   -11.1860 ca         1 A1B      -0.108000
     18 C11         -9.2290     4.7320    -9.1420 ca         1 A1B      -0.105300
     19 C12         -9.2540     3.5500    -9.8670 ca         1 A1B      -0.075300
     20 C14         -9.3550     2.3900    -8.9210 c5         1 A1B       0.207100
     21 N4          -8.9820     2.9930    -7.6430 n7         1 A1B      -0.871400
     22 C16         -7.4720     5.4550   -16.4710 ca         1 A1B      -0.223900
     23 H2          -4.3230     6.0780   -15.4550 hn         1 A1B       0.487000
     24 H1          -5.7210     6.1880   -14.5040 hn         1 A1B       0.487000
     25 H6          -9.5960     3.9940   -13.7580 hn         1 A1B       0.160000
     26 H4         -11.0040     4.8290   -17.8640 ha         1 A1B       0.123000
     27 H5         -10.6690     5.0600   -15.4620 ha         1 A1B       0.121000
     28 H8          -9.1620     6.8810    -9.2460 ha         1 A1B       0.120000
     29 H9          -9.2090     2.6350   -11.8140 ha         1 A1B       0.117000
     30 H13        -10.3150     4.6490    -7.2980 h1         1 A1B       0.047700
     31 H14         -8.6040     5.0030    -7.0810 h1         1 A1B       0.047700
     32 H3          -9.1000     4.9880   -19.4510 ha         1 A1B       0.141000
     33 H7          -9.1070     6.9280   -11.6970 ha         1 A1B       0.134000
     34 H10        -10.3770     1.9850    -8.9380 h1         1 A1B       0.047700
     35 H11         -8.6840     1.5690    -9.1860 h1         1 A1B       0.047700
     36 H12         -9.4290     2.5270    -6.8670 hn         1 A1B       0.418000
@<TRIPOS>BOND
     1     1    11 1   
     2     1    23 1   
     3     1    24 1   
     4     2     6 1   
     5     2     7 1   
     6     2    25 1   
     7     3     4 ar  
     8     3    15 ar  
     9     3    26 1   
    10     4     5 ar  
    11     4    27 1   
    12     5     6 1   
    13     5    22 ar  
    14     6    16 2   
    15     7     9 ar  
    16     7    17 ar  
    17     8    17 ar  
    18     8    18 ar  
    19     8    28 1   
    20     9    19 ar  
    21     9    29 1   
    22    10    18 1   
    23    10    21 1   
    24    10    30 1   
    25    10    31 1   
    26    11    12 2   
    27    11    22 1   
    28    12    13 1   
    29    13    14 1   
    30    14    15 ar  
    31    14    22 ar  
    32    15    32 1   
    33    17    33 1   
    34    18    19 ar  
    35    19    20 1   
    36    20    21 1   
    37    20    34 1   
    38    20    35 1   
    39    21    36 1   
@<TRIPOS>SUBSTRUCTURE
     1 A1B         1 TEMP              0 ****  ****    0 ROOT
