@<TRIPOS>MOLECULE
A1B
   39    42     1     0     0
SMALL
abcg2


@<TRIPOS>ATOM
      1 N1          -8.9700     4.8450   -13.3770 ns         1 A1B      -0.149000
      2 N3          -6.0240     5.7030   -15.7220 na         1 A1B      -0.090300
      3 C4          -9.4720     5.9600    -9.8660 ca         1 A1B      -0.070000
      4 C5          -9.3680     4.7430    -9.2170 ca         1 A1B      -0.109300
      5 C6          -9.1360     3.5850    -9.9440 ca         1 A1B      -0.072300
      6 C7          -8.9900     3.6220   -11.3170 ca         1 A1B      -0.136000
      7 C8          -9.1030     2.4120    -9.0110 c5         1 A1B       0.208100
      8 C10         -8.4450     5.4990   -15.6160 ca         1 A1B      -0.150600
      9 C13         -8.5240     5.1790   -18.3840 ca         1 A1B      -0.076000
     10 C15         -7.2690     5.5330   -16.3630 ca         1 A1B       0.042800
     11 C17         -4.2980     5.4790   -14.4200 cc         1 A1B       0.244900
     12 O1          -7.9870     6.8700   -13.7430 o          1 A1B      -0.543100
     13 C1          -8.4310     5.8150   -14.1490 c          1 A1B       0.617700
     14 C2          -9.0910     4.8490   -11.9750 ca         1 A1B      -0.034000
     15 C3          -9.3370     6.0150   -11.2480 ca         1 A1B      -0.113000
     16 N2          -8.9420     3.0500    -7.7070 n7         1 A1B      -0.873400
     17 C9          -9.4980     4.4000    -7.7630 c5         1 A1B       0.212100
     18 C11         -9.6570     5.2770   -16.2560 ca         1 A1B      -0.074000
     19 C12         -9.6870     5.1280   -17.6340 ca         1 A1B       0.111000
     20 CL1        -11.2030     4.8810   -18.4240 cl         1 A1B      -0.180000
     21 C14         -7.3120     5.3650   -17.7380 ca         1 A1B      -0.107000
     22 C16         -5.4990     4.9150   -14.7290 cd         1 A1B      -0.222000
     23 N4          -4.0800     6.5890   -15.1910 nc         1 A1B      -0.666000
     24 C18         -5.1290     6.6960   -15.9570 cd         1 A1B       0.417400
     25 H1          -9.1810     3.9680   -13.8320 hn         1 A1B       0.154000
     26 H2          -9.6620     6.8720    -9.3150 ha         1 A1B       0.121000
     27 H3          -8.7970     2.7170   -11.8830 ha         1 A1B       0.113000
     28 H4         -10.0330     1.8320    -9.1090 h1         1 A1B       0.046700
     29 H5          -8.2790     1.7240    -9.2230 h1         1 A1B       0.046700
     30 H6          -8.5520     5.0560   -19.4570 ha         1 A1B       0.140000
     31 H7          -3.5800     5.1410   -13.6900 h4         1 A1B       0.041100
     32 H8          -9.4360     6.9650   -11.7490 ha         1 A1B       0.139000
     33 H9          -9.3590     2.5030    -6.9680 hn         1 A1B       0.419000
     34 H11         -8.9450     5.0860    -7.1150 h1         1 A1B       0.047700
     35 H12        -10.5530     4.4560    -7.4560 h1         1 A1B       0.047700
     36 H13        -10.5760     5.2510   -15.6860 ha         1 A1B       0.142000
     37 H14         -6.3930     5.3680   -18.3100 ha         1 A1B       0.139000
     38 H15         -6.0040     4.0360   -14.3640 h4         1 A1B       0.156000
     39 H16         -5.3130     7.4660   -16.6910 h5         1 A1B       0.058100
@<TRIPOS>BOND
     1     1    13 1   
     2     1    14 1   
     3     1    25 1   
     4     2    10 1   
     5     2    22 1   
     6     2    24 1   
     7     3     4 ar  
     8     3    15 ar  
     9     3    26 1   
    10     4     5 ar  
    11     4    17 1   
    12     5     6 ar  
    13     5     7 1   
    14     6    14 ar  
    15     6    27 1   
    16     7    16 1   
    17     7    28 1   
    18     7    29 1   
    19     8    10 ar  
    20     8    13 1   
    21     8    18 ar  
    22     9    19 ar  
    23     9    21 ar  
    24     9    30 1   
    25    10    21 ar  
    26    11    22 2   
    27    11    23 1   
    28    11    31 1   
    29    12    13 2   
    30    14    15 ar  
    31    15    32 1   
    32    16    17 1   
    33    16    33 1   
    34    17    34 1   
    35    17    35 1   
    36    18    19 ar  
    37    18    36 1   
    38    19    20 1   
    39    21    37 1   
    40    22    38 1   
    41    23    24 2   
    42    24    39 1   
@<TRIPOS>SUBSTRUCTURE
     1 A1B         1 TEMP              0 ****  ****    0 ROOT
