@<TRIPOS>MOLECULE
A1B
   34    37     1     0     0
SMALL
abcg2


@<TRIPOS>ATOM
      1 N1          -8.6480     4.1370   -12.6490 ns         1 A1B      -0.151000
      2 N3         -10.0150     4.1360   -19.0070 nc         1 A1B      -0.507200
      3 C4          -8.8150     5.1270    -9.0720 ca         1 A1B      -0.071000
      4 C5          -9.0750     3.8950    -8.4990 ca         1 A1B      -0.111300
      5 C6          -9.1900     2.7680    -9.2980 ca         1 A1B      -0.072300
      6 C7          -9.0330     2.8460   -10.6680 ca         1 A1B      -0.138000
      7 C8          -9.5080     1.5810    -8.4390 c5         1 A1B       0.207100
      8 C10         -7.9370     4.7930   -14.8520 ca         1 A1B      -0.162600
      9 C13         -8.0200     4.6610   -17.6180 ca         1 A1B      -0.171000
     10 C15         -9.1750     4.4130   -16.8660 ca         1 A1B      -0.221900
     11 O1          -7.0310     5.7220   -12.8750 o          1 A1B      -0.570100
     12 C1          -7.8210     4.9380   -13.3690 c          1 A1B       0.618700
     13 C2          -8.7630     4.0870   -11.2500 ca         1 A1B      -0.030000
     14 C3          -8.6620     5.2260   -10.4500 ca         1 A1B      -0.114000
     15 N2          -9.1690     2.0600    -7.1010 n7         1 A1B      -0.871400
     16 C9          -9.3080     3.5150    -7.0670 c5         1 A1B       0.211100
     17 C11         -6.7900     5.0570   -15.6270 ca         1 A1B      -0.043000
     18 C12         -6.8110     4.9830   -17.0000 ca         1 A1B      -0.084000
     19 S1          -8.4090     4.5040   -19.2890 ss         1 A1B       0.306500
     20 C14        -10.2740     4.1240   -17.7400 cd         1 A1B       0.420800
     21 C16         -9.1310     4.4760   -15.4710 ca         1 A1B      -0.024000
     22 H1          -9.0980     3.3830   -13.1460 hn         1 A1B       0.153000
     23 H3          -8.7330     6.0200    -8.4640 ha         1 A1B       0.119000
     24 H4          -9.1120     1.9610   -11.2900 ha         1 A1B       0.114000
     25 H5         -10.5660     1.3090    -8.5570 h1         1 A1B       0.046700
     26 H6          -8.9220     0.6970    -8.7060 h1         1 A1B       0.046700
     27 H2          -8.4790     6.1930   -10.8920 ha         1 A1B       0.137000
     28 H7          -9.7340     1.6150    -6.3920 hn         1 A1B       0.417000
     29 H8         -10.3020     3.8560    -6.7440 h1         1 A1B       0.046700
     30 H9          -8.5820     3.9680    -6.3850 h1         1 A1B       0.046700
     31 H10         -5.8660     5.3180   -15.1280 ha         1 A1B       0.139000
     32 H11         -5.9170     5.1760   -17.5770 ha         1 A1B       0.133000
     33 H12        -11.2790     3.9000   -17.4020 h4         1 A1B       0.058800
     34 H13        -10.0380     4.3030   -14.9050 ha         1 A1B       0.122000
@<TRIPOS>BOND
     1     1    12 1   
     2     1    13 1   
     3     1    22 1   
     4     2    19 1   
     5     2    20 2   
     6     3     4 ar  
     7     3    14 ar  
     8     3    23 1   
     9     4     5 ar  
    10     4    16 1   
    11     5     6 ar  
    12     5     7 1   
    13     6    13 ar  
    14     6    24 1   
    15     7    15 1   
    16     7    25 1   
    17     7    26 1   
    18     8    12 1   
    19     8    17 ar  
    20     8    21 ar  
    21     9    10 ar  
    22     9    18 ar  
    23     9    19 1   
    24    10    20 1   
    25    10    21 ar  
    26    11    12 2   
    27    13    14 ar  
    28    14    27 1   
    29    15    16 1   
    30    15    28 1   
    31    16    29 1   
    32    16    30 1   
    33    17    18 ar  
    34    17    31 1   
    35    18    32 1   
    36    20    33 1   
    37    21    34 1   
@<TRIPOS>SUBSTRUCTURE
     1 A1B         1 TEMP              0 ****  ****    0 ROOT
