@<TRIPOS>MOLECULE
A1B
   49    52     1     0     0
SMALL
abcg2


@<TRIPOS>ATOM
      1 N1          -8.7220     5.0440   -13.5940 ns         1 A1B      -0.152000
      2 N3          -3.9200     7.5430   -17.8880 n3         1 A1B      -0.697600
      3 C4          -8.5240     6.3600   -11.5200 ca         1 A1B      -0.121000
      4 C5          -8.6580     5.1500   -12.1970 ca         1 A1B      -0.024000
      5 C6          -8.2300     5.9110   -14.5160 c          1 A1B       0.627700
      6 C7          -8.5270     5.5240   -15.9280 cc         1 A1B      -0.113600
      7 C8          -9.7750     5.1230   -16.3200 cd         1 A1B      -0.077000
      8 C10         -9.0910     4.9880   -18.6160 cc         1 A1B      -0.085000
      9 C15         -2.3790     9.3160   -17.7790 c5         1 A1B      -0.078400
     10 C17         -4.5880     8.6600   -18.5310 c5         1 A1B       0.159800
     11 O           -7.6170     6.9260   -14.2490 o          1 A1B      -0.533100
     12 C3          -8.4930     6.3560   -10.1320 ca         1 A1B      -0.093000
     13 C2          -8.5980     5.1790    -9.4090 ca         1 A1B      -0.108000
     14 C19         -8.7650     3.9660   -11.4650 ca         1 A1B      -0.164000
     15 C1          -8.7450     3.9660   -10.0770 ca         1 A1B      -0.063300
     16 C           -8.9100     2.6700    -9.3230 c3         1 A1B       0.198100
     17 N           -8.0960     2.6290    -8.1220 n8         1 A1B      -0.999200
     18 C18         -7.5140     5.6600   -16.9120 cc         1 A1B      -0.061000
     19 N2          -7.8450     5.3770   -18.2300 na         1 A1B       0.122100
     20 C9         -10.0620     4.8540   -17.6790 cd         1 A1B      -0.160000
     21 N4          -6.2460     5.9920   -16.8100 nd         1 A1B      -0.234600
     22 C12         -5.7440     5.9370   -18.0720 cd         1 A1B       0.072400
     23 C11         -6.7080     5.5630   -18.9700 cc         1 A1B      -0.284100
     24 C16         -3.7960     9.8710   -18.0420 c5         1 A1B      -0.078400
     25 C14         -2.5030     7.8140   -18.0530 c5         1 A1B       0.159800
     26 H7          -9.0680     4.1630   -13.9430 hn         1 A1B       0.150000
     27 H6          -8.4500     7.2950   -12.0520 ha         1 A1B       0.141000
     28 H8         -10.5710     5.0300   -15.5920 ha         1 A1B       0.128000
     29 H10         -9.2380     4.8040   -19.6700 h4         1 A1B       0.145000
     30 H13         -3.6800     5.4920   -17.8910 h1         1 A1B       0.038200
     31 H12         -4.1510     6.1380   -19.4600 h1         1 A1B       0.038200
     32 H17         -2.0730     9.5020   -16.7500 hc         1 A1B       0.046950
     33 H16         -1.6280     9.7720   -18.4240 hc         1 A1B       0.046950
     34 H21         -5.6440     8.7040   -18.2600 h1         1 A1B       0.033450
     35 H20         -4.5340     8.5840   -19.6310 h1         1 A1B       0.033450
     36 H5          -8.3880     7.2980    -9.6100 ha         1 A1B       0.115000
     37 H4          -8.5660     5.2000    -8.3280 ha         1 A1B       0.131000
     38 H22         -8.8620     3.0230   -11.9940 ha         1 A1B       0.104000
     39 H2          -8.7290     1.8360   -10.0150 h1         1 A1B       0.032700
     40 H3          -9.9570     2.5800    -9.0180 h1         1 A1B       0.032700
     41 H           -8.3280     1.8020    -7.5870 hn         1 A1B       0.397500
     42 H24         -7.1200     2.5350    -8.3750 hn         1 A1B       0.397500
     43 H9         -11.0530     4.5500   -17.9810 ha         1 A1B       0.134000
     44 H11         -6.6860     5.4170   -20.0370 h4         1 A1B       0.231000
     45 H19         -4.2310    10.2630   -17.1220 hc         1 A1B       0.046950
     46 H18         -3.8040    10.6790   -18.7720 hc         1 A1B       0.046950
     47 H15         -1.9070     7.2000   -17.3740 h1         1 A1B       0.033450
     48 H14         -2.1640     7.5880   -19.0790 h1         1 A1B       0.033450
     49 C13         -4.3140     6.2430   -18.3740 c3         1 A1B       0.250000
@<TRIPOS>BOND
     1     1     4 1   
     2     1     5 1   
     3     1    26 1   
     4     2    10 1   
     5     2    25 1   
     6     2    49 1   
     7     3     4 ar  
     8     3    12 ar  
     9     3    27 1   
    10     4    14 ar  
    11     5     6 1   
    12     5    11 2   
    13     6     7 2   
    14     6    18 1   
    15     7    20 1   
    16     7    28 1   
    17     8    19 1   
    18     8    20 2   
    19     8    29 1   
    20     9    24 1   
    21     9    25 1   
    22     9    32 1   
    23     9    33 1   
    24    10    24 1   
    25    10    34 1   
    26    10    35 1   
    27    12    13 ar  
    28    12    36 1   
    29    13    15 ar  
    30    13    37 1   
    31    14    15 ar  
    32    14    38 1   
    33    15    16 1   
    34    16    17 1   
    35    16    39 1   
    36    16    40 1   
    37    17    41 1   
    38    17    42 1   
    39    18    19 1   
    40    18    21 2   
    41    19    23 1   
    42    20    43 1   
    43    21    22 1   
    44    22    23 2   
    45    22    49 1   
    46    23    44 1   
    47    24    45 1   
    48    24    46 1   
    49    25    47 1   
    50    25    48 1   
    51    30    49 1   
    52    31    49 1   
@<TRIPOS>SUBSTRUCTURE
     1 A1B         1 TEMP              0 ****  ****    0 ROOT
