@<TRIPOS>MOLECULE
A1B
   33    35     1     0     0
SMALL
abcg2


@<TRIPOS>ATOM
      1 N1          -7.9130     4.4080   -20.6650 n1         1 A1B      -0.424000
      2 N3          -9.3880     2.6690    -7.5250 n7         1 A1B      -0.873400
      3 C4          -6.7400     5.1330   -16.0670 ca         1 A1B      -0.063000
      4 C5          -7.9270     5.0320   -15.3480 ca         1 A1B      -0.128600
      5 C6          -7.8800     5.2530   -13.8650 c          1 A1B       0.615700
      6 C7          -8.9020     4.4980   -11.7550 ca         1 A1B      -0.036000
      7 C8          -8.8680     5.6780   -11.0130 ca         1 A1B      -0.111000
      8 C10         -9.3020     4.4320    -9.0130 ca         1 A1B      -0.107300
      9 C13         -9.6540     2.1090    -8.8480 c5         1 A1B       0.208100
     10 C15         -9.1260     4.7890   -16.0090 ca         1 A1B      -0.089000
     11 C2          -7.9420     4.7130   -18.1070 ca         1 A1B       0.011000
     12 C3          -6.7440     4.9600   -17.4370 ca         1 A1B      -0.073000
     13 O1          -7.1090     6.0620   -13.3860 o          1 A1B      -0.563100
     14 N2          -8.7390     4.4880   -13.1530 ns         1 A1B      -0.148000
     15 C9          -9.0650     5.6440    -9.6380 ca         1 A1B      -0.072000
     16 C11         -9.3490     3.2630    -9.7560 ca         1 A1B      -0.074300
     17 C12         -9.1470     3.2790   -11.1230 ca         1 A1B      -0.133000
     18 C14         -9.5760     4.1180    -7.5730 c5         1 A1B       0.211100
     19 C16         -9.1320     4.6370   -17.3840 ca         1 A1B       0.136000
     20 CL1        -10.6160     4.3610   -18.2060 cl         1 A1B      -0.162000
     21 H9          -9.9640     2.2400    -6.8150 hn         1 A1B       0.419000
     22 H2          -5.8090     5.3340   -15.5560 ha         1 A1B       0.146000
     23 H4          -8.7040     6.6280   -11.5000 ha         1 A1B       0.136000
     24 H7         -10.6960     1.7870    -8.9930 h1         1 A1B       0.047200
     25 H8          -9.0240     1.2370    -9.0470 h1         1 A1B       0.047200
     26 H12        -10.0630     4.7420   -15.4690 ha         1 A1B       0.138000
     27 H1          -5.8220     5.0190   -17.9980 ha         1 A1B       0.137000
     28 H3          -9.1840     3.7210   -13.6360 hn         1 A1B       0.156000
     29 H5          -9.0370     6.5670    -9.0730 ha         1 A1B       0.121000
     30 H6          -9.1740     2.3620   -11.7020 ha         1 A1B       0.115000
     31 H10        -10.5930     4.4410    -7.3050 h1         1 A1B       0.047700
     32 H11         -8.8930     4.6300    -6.8900 h1         1 A1B       0.047700
     33 C1          -7.9390     4.5440   -19.5220 cg         1 A1B       0.318000
@<TRIPOS>BOND
     1     1    33 3   
     2     2     9 1   
     3     2    18 1   
     4     2    21 1   
     5     3     4 ar  
     6     3    12 ar  
     7     3    22 1   
     8     4     5 1   
     9     4    10 ar  
    10     5    13 2   
    11     5    14 1   
    12     6     7 ar  
    13     6    14 1   
    14     6    17 ar  
    15     7    15 ar  
    16     7    23 1   
    17     8    15 ar  
    18     8    16 ar  
    19     8    18 1   
    20     9    16 1   
    21     9    24 1   
    22     9    25 1   
    23    10    19 ar  
    24    10    26 1   
    25    11    12 ar  
    26    11    19 ar  
    27    11    33 1   
    28    12    27 1   
    29    14    28 1   
    30    15    29 1   
    31    16    17 ar  
    32    17    30 1   
    33    18    31 1   
    34    18    32 1   
    35    19    20 1   
@<TRIPOS>SUBSTRUCTURE
     1 A1B         1 TEMP              0 ****  ****    0 ROOT
