@<TRIPOS>MOLECULE
A1B
   34    37     1     0     0
SMALL
abcg2


@<TRIPOS>ATOM
      1 N1          -8.5970     4.3840   -12.8820 ns         1 A1B      -0.151000
      2 N3          -8.2150     4.6170   -19.2280 nc         1 A1B      -0.522100
      3 C4          -8.7650     5.4510    -9.3270 ca         1 A1B      -0.068000
      4 C5          -8.9820     4.2250    -8.7230 ca         1 A1B      -0.139300
      5 C6          -9.0530     3.0740    -9.4940 ca         1 A1B      -0.101300
      6 C7          -8.8960     3.1240   -10.8650 ca         1 A1B      -0.134000
      7 C8          -9.2680     1.8930    -8.5820 c5         1 A1B       0.186100
      8 C10         -7.9130     4.9970   -15.1050 ca         1 A1B      -0.145600
      9 C13         -8.0180     4.7630   -17.8760 ca         1 A1B       0.106400
     10 C15         -9.1590     4.5570   -17.0860 ca         1 A1B      -0.200000
     11 O1          -7.0090     5.9890   -13.1560 o          1 A1B      -0.569100
     12 C1          -7.7900     5.1820   -13.6270 c          1 A1B       0.616700
     13 C2          -8.6890     4.3600   -11.4800 ca         1 A1B      -0.031000
     14 C3          -8.6310     5.5220   -10.7090 ca         1 A1B      -0.113000
     15 N2          -9.6670     2.4760    -7.2970 n7         1 A1B      -0.830400
     16 C9          -9.1460     3.8480    -7.2730 c5         1 A1B       0.190100
     17 C11         -6.7710     5.2250   -15.8910 ca         1 A1B      -0.065000
     18 C12         -6.8100     5.0990   -17.2620 ca         1 A1B      -0.061000
     19 C14         -9.4400     4.3190   -19.4750 cd         1 A1B       0.393100
     20 S1         -10.5000     4.1810   -18.1100 ss         1 A1B       0.036800
     21 C16         -9.1210     4.6670   -15.7010 ca         1 A1B      -0.046000
     22 H1          -9.0370     3.6080   -13.3550 hn         1 A1B       0.154000
     23 H3          -8.7150     6.3610    -8.7420 ha         1 A1B       0.120000
     24 H4          -8.9390     2.2210   -11.4660 ha         1 A1B       0.114000
     25 H5         -10.0240     1.1950    -8.9430 h1         1 A1B       0.062700
     26 H6          -8.3360     1.3270    -8.4770 h1         1 A1B       0.062700
     27 H2          -8.5020     6.4860   -11.1790 ha         1 A1B       0.137000
     28 H7         -10.6770     2.5310    -7.2850 hn         1 A1B       0.401000
     29 H8          -9.8190     4.5070    -6.7220 h1         1 A1B       0.062700
     30 H9          -8.1780     3.8820    -6.7610 h1         1 A1B       0.062700
     31 H10         -5.8420     5.4940   -15.4080 ha         1 A1B       0.141000
     32 H11         -5.9250     5.2630   -17.8620 ha         1 A1B       0.140000
     33 H12         -9.8270     4.1550   -20.4730 h5         1 A1B       0.061800
     34 H13        -10.0220     4.5230   -15.1190 ha         1 A1B       0.127000
@<TRIPOS>BOND
     1     1    12 1   
     2     1    13 1   
     3     1    22 1   
     4     2     9 1   
     5     2    19 2   
     6     3     4 ar  
     7     3    14 ar  
     8     3    23 1   
     9     4     5 ar  
    10     4    16 1   
    11     5     6 ar  
    12     5     7 1   
    13     6    13 ar  
    14     6    24 1   
    15     7    15 1   
    16     7    25 1   
    17     7    26 1   
    18     8    12 1   
    19     8    17 ar  
    20     8    21 ar  
    21     9    10 ar  
    22     9    18 ar  
    23    10    20 1   
    24    10    21 ar  
    25    11    12 2   
    26    13    14 ar  
    27    14    27 1   
    28    15    16 1   
    29    15    28 1   
    30    16    29 1   
    31    16    30 1   
    32    17    18 ar  
    33    17    31 1   
    34    18    32 1   
    35    19    20 1   
    36    19    33 1   
    37    21    34 1   
@<TRIPOS>SUBSTRUCTURE
     1 A1B         1 TEMP              0 ****  ****    0 ROOT
