@<TRIPOS>MOLECULE
A1B
   36    38     1     0     0
SMALL
abcg2


@<TRIPOS>ATOM
      1 N1          -9.1120     5.0830   -13.9840 ns         1 A1B      -0.145000
      2 N3          -8.7200     9.8890    -9.6060 nc         1 A1B      -0.171800
      3 C4          -9.8730     4.6480   -16.7310 ca         1 A1B      -0.086000
      4 C5          -8.8310     5.4810   -16.3350 ca         1 A1B      -0.150600
      5 C6          -8.7150     5.9750   -14.9280 c          1 A1B       0.619700
      6 C7          -9.1770     5.2400   -12.5970 ca         1 A1B      -0.025000
      7 C8          -9.4120     4.0870   -11.8450 ca         1 A1B      -0.154000
      8 C10         -9.3900     5.3710    -9.8110 ca         1 A1B      -0.105000
      9 C13         -9.0490     6.4640   -11.9440 ca         1 A1B      -0.095000
     10 O           -8.2840     7.0870   -14.6830 o          1 A1B      -0.559100
     11 C3          -9.9430     4.2590   -18.0580 ca         1 A1B       0.110000
     12 CL         -11.2520     3.2450   -18.5700 cl         1 A1B      -0.199000
     13 C2          -9.0020     4.6720   -18.9840 ca         1 A1B      -0.088000
     14 C14         -7.8900     5.9160   -17.2640 ca         1 A1B      -0.036000
     15 C1          -7.9580     5.5040   -18.5880 ca         1 A1B      -0.082300
     16 C           -6.9180     5.9140   -19.6020 c3         1 A1B       0.198100
     17 N           -6.2230     7.1280   -19.2260 n8         1 A1B      -1.001200
     18 C11         -9.1560     6.5220   -10.5560 ca         1 A1B      -0.101500
     19 C9          -9.5170     4.1570   -10.4670 ca         1 A1B      -0.091000
     20 C12         -9.0240     7.8150    -9.8890 cd         1 A1B       0.556500
     21 N5          -9.1570     8.0010    -8.5880 nc         1 A1B      -0.520800
     22 N4          -8.9600     9.2860    -8.4820 na         1 A1B       0.109600
     23 N2          -8.7550     8.9750   -10.5170 nd         1 A1B      -0.370000
     24 H7          -9.3170     4.1490   -14.3070 hn         1 A1B       0.154000
     25 H8          -9.5140     3.1290   -12.3420 ha         1 A1B       0.111000
     26 H10         -9.4710     5.4180    -8.7340 ha         1 A1B       0.130000
     27 H11         -8.8710     7.3700   -12.4990 ha         1 A1B       0.168000
     28 H5          -9.0830     4.3570   -20.0180 ha         1 A1B       0.129000
     29 H12         -7.0900     6.5750   -16.9580 ha         1 A1B       0.159000
     30 H3          -7.3970     5.9580   -20.5890 h1         1 A1B       0.038200
     31 H4          -6.1790     5.1100   -19.6700 h1         1 A1B       0.038200
     32 H1          -5.4290     7.2620   -19.8380 hn         1 A1B       0.403500
     33 H13         -6.8280     7.9280   -19.3670 hn         1 A1B       0.403500
     34 H9          -9.6990     3.2530    -9.9010 ha         1 A1B       0.117000
     35 H           -8.9950     9.7800    -7.5990 hn         1 A1B       0.405000
     36 H6         -10.6410     4.3310   -16.0380 ha         1 A1B       0.131000
@<TRIPOS>BOND
     1     1     5 1   
     2     1     6 1   
     3     1    24 1   
     4     2    22 1   
     5     2    23 2   
     6     3     4 ar  
     7     3    11 ar  
     8     3    36 1   
     9     4     5 1   
    10     4    14 ar  
    11     5    10 2   
    12     6     7 ar  
    13     6     9 ar  
    14     7    19 ar  
    15     7    25 1   
    16     8    18 ar  
    17     8    19 ar  
    18     8    26 1   
    19     9    18 ar  
    20     9    27 1   
    21    11    12 1   
    22    11    13 ar  
    23    13    15 ar  
    24    13    28 1   
    25    14    15 ar  
    26    14    29 1   
    27    15    16 1   
    28    16    17 1   
    29    16    30 1   
    30    16    31 1   
    31    17    32 1   
    32    17    33 1   
    33    18    20 1   
    34    19    34 1   
    35    20    21 2   
    36    20    23 1   
    37    21    22 1   
    38    22    35 1   
@<TRIPOS>SUBSTRUCTURE
     1 A1B         1 TEMP              0 ****  ****    0 ROOT
