@<TRIPOS>MOLECULE
A1B
   33    35     1     0     0
SMALL
abcg2


@<TRIPOS>ATOM
      1 N2          14.9160    -0.1150     4.0830 nb         1 A1B      -0.339000
      2 C3          14.9750    -0.2220     1.3270 c5         1 A1B       0.202500
      3 C6          14.9260     2.2080     1.2500 c5         1 A1B       0.223800
      4 C9          15.2170     2.0490     5.5760 ca         1 A1B       0.146500
      5 C12         15.3250     4.2350     5.1990 cc         1 A1B      -0.184100
      6 C10         15.0970     2.2460     4.1890 ca         1 A1B      -0.249800
      7 C11         15.1680     3.6620     3.9740 cd         1 A1B      -0.202200
      8 C2          13.6530    -1.0000     1.1800 c3         1 A1B       0.175300
      9 C4          15.5020     0.2760    -0.0210 c5         1 A1B      -0.092400
     10 C5          14.8630     1.6520    -0.1650 c5         1 A1B      -0.095400
     11 C7          14.9470     1.0590     3.4310 ca         1 A1B       0.449900
     12 C8          15.0460    -0.1410     5.4070 ca         1 A1B       0.187900
     13 N1          14.8420     1.0220     2.0920 nh         1 A1B      -0.770300
     14 N3          15.2030     0.8770     6.2210 nb         1 A1B      -0.233000
     15 N4          15.3560     3.2590     6.1600 na         1 A1B      -0.314400
     16 O1          12.9200    -1.0590     2.3810 oh         1 A1B      -0.671000
     17 H2          15.7060    -0.8670     1.8250 h1         1 A1B       0.077700
     18 H12         15.8730     2.7310     1.4150 h1         1 A1B       0.052200
     19 H11         14.1140     2.9050     1.4590 h1         1 A1B       0.052200
     20 H15         15.4190     5.2740     5.4670 h4         1 A1B       0.216000
     21 H14         15.1100     4.2050     3.0460 ha         1 A1B       0.202000
     22 H1          13.0200    -0.4700     0.4580 h1         1 A1B       0.056700
     23 H7          15.2590    -0.3950    -0.8440 hc         1 A1B       0.057200
     24 H8          16.5900     0.3660     0.0170 hc         1 A1B       0.057200
     25 H9          15.3820     2.2940    -0.8750 hc         1 A1B       0.057700
     26 H10         13.8270     1.5640    -0.4960 hc         1 A1B       0.057700
     27 H13         15.0130    -1.1270     5.8590 h5         1 A1B       0.043100
     28 H16         15.4620     3.4130     7.1510 hn         1 A1B       0.362000
     29 H6          13.5570    -1.0830     3.1150 ho         1 A1B       0.477000
     30 C1          13.9290    -2.4010     0.6440 c3         1 A1B      -0.122100
     31 H3          12.9960    -2.9500     0.5190 hc         1 A1B       0.039700
     32 H4          14.4300    -2.3790    -0.3240 hc         1 A1B       0.039700
     33 H5          14.5630    -2.9620     1.3350 hc         1 A1B       0.039700
@<TRIPOS>BOND
     1     1    11 ar  
     2     1    12 ar  
     3     2     8 1   
     4     2     9 1   
     5     2    13 1   
     6     2    17 1   
     7     3    10 1   
     8     3    13 1   
     9     3    18 1   
    10     3    19 1   
    11     4     6 ar  
    12     4    14 ar  
    13     4    15 1   
    14     5     7 2   
    15     5    15 1   
    16     5    20 1   
    17     6     7 1   
    18     6    11 ar  
    19     7    21 1   
    20     8    16 1   
    21     8    22 1   
    22     8    30 1   
    23     9    10 1   
    24     9    23 1   
    25     9    24 1   
    26    10    25 1   
    27    10    26 1   
    28    11    13 1   
    29    12    14 ar  
    30    12    27 1   
    31    15    28 1   
    32    16    29 1   
    33    30    31 1   
    34    30    32 1   
    35    30    33 1   
@<TRIPOS>SUBSTRUCTURE
     1 A1B         1 TEMP              0 ****  ****    0 ROOT
