@<TRIPOS>MOLECULE
A1B
   37    39     1     0     0
SMALL
abcg2


@<TRIPOS>ATOM
      1 N2          13.8180     0.0960     3.2410 nb         1 A1B      -0.291000
      2 C3          14.3250    -0.0540    -0.4950 c3         1 A1B      -0.041100
      3 C6          11.8540     2.6850     0.4410 ca         1 A1B      -0.172500
      4 C9          11.8700    -0.0530     0.0580 ca         1 A1B      -0.061000
      5 C12         14.2160     2.3960     4.5200 ca         1 A1B       0.148500
      6 C14         15.8180     3.2880     3.1700 cc         1 A1B      -0.210200
      7 C1          16.3640    -1.2780     0.4180 c3         1 A1B       0.152600
      8 C10         14.7280     0.9240     2.7270 ca         1 A1B       0.439900
      9 C11         13.1690     0.4620     4.3460 ca         1 A1B       0.179900
     10 C13         14.9780     2.1530     3.3730 ca         1 A1B      -0.260800
     11 C15         15.5370     4.1540     4.1870 cd         1 A1B      -0.179100
     12 C2          15.0730    -0.5420     0.7550 c3         1 A1B       0.231500
     13 C4          13.0500     0.6560    -0.1460 ca         1 A1B      -0.118300
     14 C5          13.0150     2.0350     0.0500 ca         1 A1B      -0.061000
     15 C7          10.6850     1.9580     0.6440 ca         1 A1B       0.139100
     16 C8          10.6980     0.5790     0.4480 ca         1 A1B      -0.172500
     17 N1          15.4050     0.5700     1.6190 nu         1 A1B      -0.923100
     18 N3          13.2990     1.5730     5.0400 nb         1 A1B      -0.229000
     19 N4          14.5710     3.6130     4.9980 na         1 A1B      -0.317400
     20 O2           9.5770     2.6330     1.0180 oh         1 A1B      -0.535100
     21 H6          14.1110    -0.9110    -1.1360 hc         1 A1B       0.055700
     22 H5          14.9870     0.6080    -1.0620 hc         1 A1B       0.055700
     23 H8          11.8520     3.7590     0.5860 ha         1 A1B       0.119500
     24 H11         11.8610    -1.1280    -0.0850 ha         1 A1B       0.110000
     25 H14         16.5390     3.4510     2.3850 ha         1 A1B       0.199000
     26 H4          16.8470    -1.5760     1.3580 h1         1 A1B       0.024200
     27 H3          17.0480    -0.5850    -0.0910 h1         1 A1B       0.024200
     28 H13         12.4410    -0.2530     4.7150 h5         1 A1B       0.042100
     29 H15         15.9510     5.1250     4.4020 h4         1 A1B       0.215000
     30 H1          14.4230    -1.2100     1.3220 h1         1 A1B       0.107700
     31 H7          13.9150     2.6190    -0.1030 ha         1 A1B       0.110000
     32 H10          9.7960    -0.0040     0.5960 ha         1 A1B       0.119500
     33 H12         16.0230     1.2660     1.2290 hn         1 A1B       0.484000
     34 H16         14.1850     4.0520     5.8180 hn         1 A1B       0.361000
     35 H2          16.8840    -2.7910    -0.6760 ho         1 A1B       0.448000
     36 H9           8.8370     2.0250     1.1290 ho         1 A1B       0.463000
     37 O1          16.0590    -2.3900    -0.3880 oh         1 A1B      -0.659000
@<TRIPOS>BOND
     1     1     8 ar  
     2     1     9 ar  
     3     2    12 1   
     4     2    13 1   
     5     2    21 1   
     6     2    22 1   
     7     3    14 ar  
     8     3    15 ar  
     9     3    23 1   
    10     4    13 ar  
    11     4    16 ar  
    12     4    24 1   
    13     5    10 ar  
    14     5    18 ar  
    15     5    19 1   
    16     6    10 1   
    17     6    11 2   
    18     6    25 1   
    19     7    12 1   
    20     7    26 1   
    21     7    27 1   
    22     7    37 1   
    23     8    10 ar  
    24     8    17 1   
    25     9    18 ar  
    26     9    28 1   
    27    11    19 1   
    28    11    29 1   
    29    12    17 1   
    30    12    30 1   
    31    13    14 ar  
    32    14    31 1   
    33    15    16 ar  
    34    15    20 1   
    35    16    32 1   
    36    17    33 1   
    37    19    34 1   
    38    20    36 1   
    39    35    37 1   
@<TRIPOS>SUBSTRUCTURE
     1 A1B         1 TEMP              0 ****  ****    0 ROOT
