@<TRIPOS>MOLECULE
A1B
   42    44     1     0     0
SMALL
abcg2


@<TRIPOS>ATOM
      1 O1          16.0110    -0.9470     1.7420 oh         1 A1B      -0.685000
      2 C1          15.5840     0.0250    -0.3430 c3         1 A1B      -0.099600
      3 C2          14.9620    -0.7650     0.8020 c3         1 A1B       0.197000
      4 C3          14.5200    -2.1490     0.3200 c3         1 A1B      -0.099600
      5 C4          13.7850    -0.0380     1.5200 c5         1 A1B       0.213500
      6 C5          14.6720     1.1130     3.5210 ca         1 A1B       0.450900
      7 C6          15.2230    -0.1880     5.3560 ca         1 A1B       0.189900
      8 C7          15.3410     1.9940     5.6280 ca         1 A1B       0.146500
      9 C8          14.9450     2.2620     4.3060 ca         1 A1B      -0.250800
     10 C10         15.3500     4.1990     5.3630 cc         1 A1B      -0.185100
     11 C11         13.8480     2.3970     1.5980 c5         1 A1B       0.222800
     12 C12         13.0680     1.9510     0.3690 c5         1 A1B      -0.092400
     13 C13         12.5860     0.5400     0.7170 c5         1 A1B      -0.053000
     14 C14         12.1190    -0.2170    -0.5190 c3         1 A1B      -0.083600
     15 C15         11.3950     0.6330     1.6830 c3         1 A1B      -0.083600
     16 C9          14.9650     3.6890     4.1600 cd         1 A1B      -0.201200
     17 N1          14.2440     1.1530     2.2470 nh         1 A1B      -0.767300
     18 N2          14.8420    -0.0940     4.0850 nb         1 A1B      -0.341000
     19 N3          15.4820     0.7900     6.1930 nb         1 A1B      -0.234000
     20 N4          15.5720     3.1730     6.2450 na         1 A1B      -0.314400
     21 H8          15.6260    -1.0240     2.6320 ho         1 A1B       0.479000
     22 H2          15.8810     1.0260    -0.0270 hc         1 A1B       0.040200
     23 H3          16.4790    -0.4920    -0.6930 hc         1 A1B       0.040200
     24 H4          14.9120     0.1190    -1.1940 hc         1 A1B       0.040200
     25 H6          14.0400    -2.7110     1.1240 hc         1 A1B       0.040200
     26 H5          13.8330    -2.1160    -0.5220 hc         1 A1B       0.040200
     27 H7          15.3980    -2.7130    -0.0010 hc         1 A1B       0.040200
     28 H1          13.3920    -0.7550     2.2480 h1         1 A1B       0.077700
     29 H9          15.3350    -1.1990     5.7350 h5         1 A1B       0.043100
     30 H11         15.4870     5.2240     5.6650 h4         1 A1B       0.216000
     31 H13         14.7150     3.0070     1.3380 h1         1 A1B       0.051200
     32 H14         13.2130     2.9830     2.2650 h1         1 A1B       0.051200
     33 H15         13.7040     1.9380    -0.5160 hc         1 A1B       0.056200
     34 H16         12.2380     2.6260     0.1560 hc         1 A1B       0.056200
     35 H18         11.7750    -1.2220    -0.2740 hc         1 A1B       0.039200
     36 H17         11.2740     0.3160    -0.9590 hc         1 A1B       0.039200
     37 H19         12.8840    -0.2960    -1.2910 hc         1 A1B       0.039200
     38 H20         11.6360     1.1780     2.5970 hc         1 A1B       0.039200
     39 H21         10.5580     1.1460     1.2040 hc         1 A1B       0.039200
     40 H22         11.0550    -0.3620     1.9730 hc         1 A1B       0.039200
     41 H10         14.7380     4.2790     3.2900 ha         1 A1B       0.202000
     42 H12         15.8700     3.2750     7.2020 hn         1 A1B       0.362000
@<TRIPOS>BOND
     1     1     3 1   
     2     1    21 1   
     3     2     3 1   
     4     2    22 1   
     5     2    23 1   
     6     2    24 1   
     7     3     4 1   
     8     3     5 1   
     9     4    25 1   
    10     4    26 1   
    11     4    27 1   
    12     5    13 1   
    13     5    17 1   
    14     5    28 1   
    15     6     9 ar  
    16     6    17 1   
    17     6    18 ar  
    18     7    18 ar  
    19     7    19 ar  
    20     7    29 1   
    21     8     9 ar  
    22     8    19 ar  
    23     8    20 1   
    24     9    16 1   
    25    10    16 2   
    26    10    20 1   
    27    10    30 1   
    28    11    12 1   
    29    11    17 1   
    30    11    31 1   
    31    11    32 1   
    32    12    13 1   
    33    12    33 1   
    34    12    34 1   
    35    13    14 1   
    36    13    15 1   
    37    14    35 1   
    38    14    36 1   
    39    14    37 1   
    40    15    38 1   
    41    15    39 1   
    42    15    40 1   
    43    16    41 1   
    44    20    42 1   
@<TRIPOS>SUBSTRUCTURE
     1 A1B         1 TEMP              0 ****  ****    0 ROOT
