@<TRIPOS>MOLECULE
A1B
   40    43     1     0     0
SMALL
abcg2


@<TRIPOS>ATOM
      1 O1          16.5490    -0.6030     0.0090 oh         1 A1B      -0.654000
      2 C1          15.1460    -0.6160    -0.1090 c3         1 A1B       0.146600
      3 C2          14.5410    -0.5850     1.2850 c3         1 A1B       0.250500
      4 C3          13.0060    -0.7540     1.2870 c5         1 A1B      -0.041400
      5 C4          12.5240    -2.1000     0.7010 c5         1 A1B      -0.073400
      6 C5          12.0100    -1.8070    -0.7200 c5         1 A1B      -0.036100
      7 C6          11.7340    -0.3300    -0.6940 ca         1 A1B      -0.088300
      8 C7          12.2860     0.2620     0.4400 ca         1 A1B      -0.090300
      9 C8          12.1350     1.6240     0.6620 ca         1 A1B      -0.100000
     10 C10         10.8960     1.8000    -1.4020 ca         1 A1B      -0.110000
     11 C11         11.0390     0.4340    -1.6190 ca         1 A1B      -0.099000
     12 C12         14.9630     0.8020     3.2810 ca         1 A1B       0.436900
     13 C13         15.2410     2.0540     3.8720 ca         1 A1B      -0.262800
     14 C14         15.5300     3.3800     3.4300 cc         1 A1B      -0.206200
     15 C15         15.6910     4.1280     4.5600 cd         1 A1B      -0.182100
     16 C16         15.2430     2.0690     5.2700 ca         1 A1B       0.147500
     17 C17         14.7650    -0.0820     5.3910 ca         1 A1B       0.179900
     18 C9          11.4390     2.3910    -0.2660 ca         1 A1B      -0.114000
     19 N1          14.9380     0.6390     1.9490 nu         1 A1B      -0.909100
     20 N2          15.5170     3.3350     5.6660 na         1 A1B      -0.316400
     21 N3          15.0110     1.0200     6.0670 nb         1 A1B      -0.234000
     22 N4          14.7250    -0.2490     4.0690 nb         1 A1B      -0.306000
     23 H3          16.9220    -0.5040    -0.8720 ho         1 A1B       0.443000
     24 H5          14.7810     0.2420    -0.6900 h1         1 A1B       0.029700
     25 H4          14.7960    -1.5200    -0.6200 h1         1 A1B       0.029700
     26 H1          14.9530    -1.4240     1.8520 h1         1 A1B       0.094700
     27 H2          12.6990    -0.6730     2.3330 hc         1 A1B       0.086700
     28 H7          11.7020    -2.4740     1.3140 hc         1 A1B       0.051200
     29 H6          13.3000    -2.8670     0.7190 hc         1 A1B       0.051200
     30 H9          11.1220    -2.3920    -0.9670 hc         1 A1B       0.051700
     31 H8          12.7570    -2.0450    -1.4820 hc         1 A1B       0.051700
     32 H10         12.5390     2.0910     1.5520 ha         1 A1B       0.118000
     33 H12         10.3510     2.4050    -2.1150 ha         1 A1B       0.112000
     34 H13         10.6050    -0.0260    -2.4990 ha         1 A1B       0.113000
     35 H15         15.6100     3.7400     2.4170 ha         1 A1B       0.201000
     36 H16         15.9180     5.1760     4.6680 h4         1 A1B       0.215000
     37 H18         14.5660    -0.9730     5.9780 h5         1 A1B       0.042100
     38 H11         11.3120     3.4530    -0.0990 ha         1 A1B       0.112000
     39 H14         15.0620     1.4600     1.3790 hn         1 A1B       0.497000
     40 H17         15.5840     3.6440     6.6220 hn         1 A1B       0.361000
@<TRIPOS>BOND
     1     1     2 1   
     2     1    23 1   
     3     2     3 1   
     4     2    24 1   
     5     2    25 1   
     6     3     4 1   
     7     3    19 1   
     8     3    26 1   
     9     4     5 1   
    10     4     8 1   
    11     4    27 1   
    12     5     6 1   
    13     5    28 1   
    14     5    29 1   
    15     6     7 1   
    16     6    30 1   
    17     6    31 1   
    18     7     8 ar  
    19     7    11 ar  
    20     8     9 ar  
    21     9    18 ar  
    22     9    32 1   
    23    10    11 ar  
    24    10    18 ar  
    25    10    33 1   
    26    11    34 1   
    27    12    13 ar  
    28    12    19 1   
    29    12    22 ar  
    30    13    14 1   
    31    13    16 ar  
    32    14    15 2   
    33    14    35 1   
    34    15    20 1   
    35    15    36 1   
    36    16    20 1   
    37    16    21 ar  
    38    17    21 ar  
    39    17    22 ar  
    40    17    37 1   
    41    18    38 1   
    42    19    39 1   
    43    20    40 1   
@<TRIPOS>SUBSTRUCTURE
     1 A1B         1 TEMP              0 ****  ****    0 ROOT
