@<TRIPOS>MOLECULE
A1B
   27    29     1     0     0
SMALL
abcg2


@<TRIPOS>ATOM
      1 N2          14.9650    -0.1040     3.9490 nb         1 A1B      -0.313000
      2 C3          14.6600     2.1860     1.1040 c5         1 A1B       0.232800
      3 C6          15.3810     2.0740     5.4090 ca         1 A1B       0.144500
      4 C9          15.5690     4.2480     4.9910 cc         1 A1B      -0.186100
      5 C1          14.8010     0.1960    -0.2190 c5         1 A1B       0.150300
      6 C10         14.6410    -0.2270     1.2380 c5         1 A1B       0.195800
      7 C2          14.1870     1.5860    -0.2170 c5         1 A1B      -0.092400
      8 C4          14.9860     1.0650     3.2930 ca         1 A1B       0.443900
      9 C5          15.1480    -0.1140     5.2650 ca         1 A1B       0.180900
     10 C7          15.2090     2.2570     4.0270 ca         1 A1B      -0.251800
     11 C8          15.3380     3.6630     3.7820 cd         1 A1B      -0.202200
     12 N1          14.7920     1.0230     1.9690 nh         1 A1B      -0.776300
     13 N3          15.3550     0.9100     6.0660 nb         1 A1B      -0.238000
     14 N4          15.5920     3.2870     5.9680 na         1 A1B      -0.316400
     15 O1          16.1560     0.3260    -0.5890 oh         1 A1B      -0.653000
     16 H5          13.9380     2.8980     1.5060 h1         1 A1B       0.055700
     17 H9          15.7220     5.2860     5.2370 h4         1 A1B       0.215000
     18 H1          14.2670    -0.4930    -0.8830 h1         1 A1B       0.049700
     19 H11         13.6540    -0.6680     1.4070 h1         1 A1B       0.063700
     20 H12         15.3850    -0.9650     1.5440 h1         1 A1B       0.063700
     21 H3          14.4790     2.1820    -1.0810 hc         1 A1B       0.064700
     22 H4          13.0990     1.4980    -0.2230 hc         1 A1B       0.064700
     23 H7          15.1180    -1.0930     5.7330 h5         1 A1B       0.041100
     24 H8          15.2780     4.1910     2.8460 ha         1 A1B       0.201000
     25 H10         15.7500     3.4520     6.9490 hn         1 A1B       0.360000
     26 H2          16.5810    -0.5330    -0.4980 ho         1 A1B       0.447000
     27 H6          15.6160     2.7050     0.9910 h1         1 A1B       0.055700
@<TRIPOS>BOND
     1     1     8 ar  
     2     1     9 ar  
     3     2     7 1   
     4     2    12 1   
     5     2    16 1   
     6     2    27 1   
     7     3    10 ar  
     8     3    13 ar  
     9     3    14 1   
    10     4    11 2   
    11     4    14 1   
    12     4    17 1   
    13     5     6 1   
    14     5     7 1   
    15     5    15 1   
    16     5    18 1   
    17     6    12 1   
    18     6    19 1   
    19     6    20 1   
    20     7    21 1   
    21     7    22 1   
    22     8    10 ar  
    23     8    12 1   
    24     9    13 ar  
    25     9    23 1   
    26    10    11 1   
    27    11    24 1   
    28    14    25 1   
    29    15    26 1   
@<TRIPOS>SUBSTRUCTURE
     1 A1B         1 TEMP              0 ****  ****    0 ROOT
