@<TRIPOS>MOLECULE
A1B
   36    38     1     0     0
SMALL
abcg2


@<TRIPOS>ATOM
      1 N2          13.8300    -0.3860     4.7480 nb         1 A1B      -0.298000
      2 C3          13.6880    -1.4070    -0.0460 c6         1 A1B      -0.071400
      3 C9          15.0490     1.8740     5.3800 ca         1 A1B       0.143500
      4 C12         15.6750     3.6960     4.2740 cc         1 A1B      -0.185100
      5 C1          16.0870    -1.2080     0.7610 c3         1 A1B      -0.087100
      6 C10         14.7720     1.6550     4.0170 ca         1 A1B      -0.244800
      7 C11         15.1720     2.8510     3.3310 cd         1 A1B      -0.206200
      8 C13         14.4010     0.5930     1.2850 c6         1 A1B       0.224800
      9 C2          14.8470    -0.4650     0.2730 c6         1 A1B      -0.073700
     10 C4          13.1110    -2.0130     1.2280 c6         1 A1B      -0.082400
     11 C5          12.7430    -0.9540     2.2650 c6         1 A1B       0.233500
     12 C7          14.1420     0.4180     3.7250 ca         1 A1B       0.459900
     13 C8          14.1520    -0.0410     5.9870 ca         1 A1B       0.180900
     14 N1          13.8450    -0.0190     2.4770 nh         1 A1B      -0.771300
     15 N3          14.7700     1.0500     6.3910 nb         1 A1B      -0.236000
     16 N4          15.6060     3.1000     5.5050 na         1 A1B      -0.319400
     17 H7          12.9120    -0.8550    -0.5860 hc         1 A1B       0.040700
     18 H6          14.0220    -2.2010    -0.7180 hc         1 A1B       0.040700
     19 H15         16.0760     4.6900     4.1640 h4         1 A1B       0.214000
     20 H4          16.9250    -0.5220     0.8900 hc         1 A1B       0.037700
     21 H5          15.9210    -1.7040     1.7180 hc         1 A1B       0.037700
     22 H3          16.3910    -1.9710     0.0430 hc         1 A1B       0.037700
     23 H14         15.0900     3.0870     2.2840 ha         1 A1B       0.200000
     24 H17         15.2730     1.1790     1.5610 h1         1 A1B       0.048200
     25 H18         13.6830     1.2780     0.8190 h1         1 A1B       0.048200
     26 H1          15.1150     0.0770    -0.6390 hc         1 A1B       0.047700
     27 H9          12.2230    -2.6080     0.9990 hc         1 A1B       0.052200
     28 H8          13.8310    -2.7020     1.6740 hc         1 A1B       0.052200
     29 H2          12.5580    -1.4520     3.2150 h1         1 A1B       0.104700
     30 H13         13.8740    -0.7520     6.7600 h5         1 A1B       0.041100
     31 H16         15.8920     3.5180     6.3760 hn         1 A1B       0.360000
     32 H12         10.4530     1.2920     2.5670 ho         1 A1B       0.441000
     33 C6          11.4690    -0.2060     1.8780 c3         1 A1B       0.140600
     34 O1          11.1940     0.7580     2.8650 oh         1 A1B      -0.648000
     35 H11         11.5740     0.2540     0.8880 h1         1 A1B       0.018700
     36 H10         10.6640    -0.9490     1.7940 h1         1 A1B       0.018700
@<TRIPOS>BOND
     1     1    12 ar  
     2     1    13 ar  
     3     2     9 1   
     4     2    10 1   
     5     2    17 1   
     6     2    18 1   
     7     3     6 ar  
     8     3    15 ar  
     9     3    16 1   
    10     4     7 2   
    11     4    16 1   
    12     4    19 1   
    13     5     9 1   
    14     5    20 1   
    15     5    21 1   
    16     5    22 1   
    17     6     7 1   
    18     6    12 ar  
    19     7    23 1   
    20     8     9 1   
    21     8    14 1   
    22     8    24 1   
    23     8    25 1   
    24     9    26 1   
    25    10    11 1   
    26    10    27 1   
    27    10    28 1   
    28    11    14 1   
    29    11    29 1   
    30    11    33 1   
    31    12    14 1   
    32    13    15 ar  
    33    13    30 1   
    34    16    31 1   
    35    32    34 1   
    36    33    34 1   
    37    33    35 1   
    38    33    36 1   
@<TRIPOS>SUBSTRUCTURE
     1 A1B         1 TEMP              0 ****  ****    0 ROOT
