@<TRIPOS>MOLECULE
A1B
   46    49     1     0     0
SMALL
abcg2


@<TRIPOS>ATOM
      1 O1          13.7070    -2.2540     2.6960 oh         1 A1B      -0.697000
      2 C1          16.0840    -2.0120     2.4000 c3         1 A1B      -0.099100
      3 C2          14.7000    -1.8750     1.7630 c3         1 A1B       0.203000
      4 C3          14.5350    -2.8810     0.6220 c3         1 A1B      -0.099100
      5 C4          14.4050    -0.4440     1.2170 c5         1 A1B       0.215500
      6 C5          14.9670    -0.0870    -0.1740 c5         1 A1B      -0.062700
      7 C6          16.4620    -0.3410    -0.4040 c6         1 A1B      -0.070400
      8 C7          16.9490     0.3270    -1.6860 c6         1 A1B      -0.076400
      9 C8          16.7500     1.8350    -1.6290 c6         1 A1B      -0.075400
     10 C10         14.6710     1.4130    -0.2260 c5         1 A1B      -0.084700
     11 C11         15.1450     1.8670     1.1450 c5         1 A1B       0.218800
     12 C12         14.6110     0.9440     3.3260 ca         1 A1B       0.449900
     13 C13         13.6600     0.2260     5.3190 ca         1 A1B       0.190900
     14 C14         14.7270     2.1490     5.3820 ca         1 A1B       0.143500
     15 C15         15.0760     2.0910     4.0210 ca         1 A1B      -0.249800
     16 C16         15.8760     3.2510     3.7620 cc         1 A1B      -0.201200
     17 C17         15.9600     3.9390     4.9340 cd         1 A1B      -0.185100
     18 C9          15.2800     2.1640    -1.4030 c6         1 A1B      -0.062400
     19 N1          14.8430     0.7300     2.0180 nh         1 A1B      -0.772300
     20 N2          13.9140     0.0370     4.0240 nb         1 A1B      -0.340000
     21 N3          14.0150     1.2440     6.0630 nb         1 A1B      -0.229000
     22 N4          15.2620     3.2720     5.9070 na         1 A1B      -0.312400
     23 H10         13.6390    -1.5010     3.3230 ho         1 A1B       0.492000
     24 H4          16.2160    -1.3290     3.2390 hc         1 A1B       0.040367
     25 H6          16.2050    -3.0280     2.7800 hc         1 A1B       0.040367
     26 H5          16.8910    -1.8280     1.6940 hc         1 A1B       0.040367
     27 H8          14.5730    -3.8920     1.0300 hc         1 A1B       0.040367
     28 H7          13.5700    -2.7580     0.1260 hc         1 A1B       0.040367
     29 H9          15.3150    -2.8020    -0.1300 hc         1 A1B       0.040367
     30 H1          13.3100    -0.4050     1.1210 h1         1 A1B       0.057700
     31 H2          14.3990    -0.6190    -0.9410 hc         1 A1B       0.065700
     32 H12         16.6660    -1.4100    -0.4640 hc         1 A1B       0.048700
     33 H11         17.0560     0.0320     0.4350 hc         1 A1B       0.048700
     34 H14         16.4020    -0.0810    -2.5430 hc         1 A1B       0.040700
     35 H13         18.0030     0.0860    -1.8470 hc         1 A1B       0.040700
     36 H16         17.0930     2.3050    -2.5540 hc         1 A1B       0.040700
     37 H15         17.3660     2.2520    -0.8270 hc         1 A1B       0.040700
     38 H3          13.5840     1.5420    -0.2630 hc         1 A1B       0.055700
     39 H20         16.2150     2.0960     1.1490 h1         1 A1B       0.053700
     40 H19         14.6130     2.7620     1.4720 h1         1 A1B       0.053700
     41 H21         13.0890    -0.5610     5.8000 h5         1 A1B       0.047100
     42 H22         16.3440     3.5520     2.8410 ha         1 A1B       0.203000
     43 H23         16.4700     4.8620     5.1570 h4         1 A1B       0.217000
     44 H17         15.1390     3.2400    -1.2660 hc         1 A1B       0.043200
     45 H18         14.7190     1.8950    -2.3030 hc         1 A1B       0.043200
     46 H24         15.1690     3.5620     6.8670 hn         1 A1B       0.363000
@<TRIPOS>BOND
     1     1     3 1   
     2     1    23 1   
     3     2     3 1   
     4     2    24 1   
     5     2    25 1   
     6     2    26 1   
     7     3     4 1   
     8     3     5 1   
     9     4    27 1   
    10     4    28 1   
    11     4    29 1   
    12     5     6 1   
    13     5    19 1   
    14     5    30 1   
    15     6     7 1   
    16     6    10 1   
    17     6    31 1   
    18     7     8 1   
    19     7    32 1   
    20     7    33 1   
    21     8     9 1   
    22     8    34 1   
    23     8    35 1   
    24     9    18 1   
    25     9    36 1   
    26     9    37 1   
    27    10    11 1   
    28    10    18 1   
    29    10    38 1   
    30    11    19 1   
    31    11    39 1   
    32    11    40 1   
    33    12    15 ar  
    34    12    19 1   
    35    12    20 ar  
    36    13    20 ar  
    37    13    21 ar  
    38    13    41 1   
    39    14    15 ar  
    40    14    21 ar  
    41    14    22 1   
    42    15    16 1   
    43    16    17 2   
    44    16    42 1   
    45    17    22 1   
    46    17    43 1   
    47    18    44 1   
    48    18    45 1   
    49    22    46 1   
@<TRIPOS>SUBSTRUCTURE
     1 A1B         1 TEMP              0 ****  ****    0 ROOT
