@<TRIPOS>MOLECULE
A1B
  134   141     1     0     0
SMALL
abcg2


@<TRIPOS>ATOM
      1 C1         -15.3020    34.8720    -6.2230 c3         1 A1B       0.038700
      2 C2         -14.1430    35.8690    -6.3530 c          1 A1B       0.592100
      3 C3         -15.0460    33.6340    -7.0910 c3         1 A1B      -0.084400
      4 O1         -13.1090    35.7080    -5.7210 o          1 A1B      -0.620100
      5 O2         -15.9490    36.4800    -4.0620 o          1 A1B      -0.605100
      6 C41        -17.6430    32.4950   -13.6990 c3         1 A1B       0.230200
      7 C42        -16.9460    31.8370   -14.8540 cc         1 A1B       0.503300
      8 C43        -19.0110    33.0190   -14.1410 c3         1 A1B      -0.084400
      9 C44        -19.9370    33.4650   -13.0100 c3         1 A1B      -0.058700
     10 C45        -20.3540    32.2890   -12.1330 c3         1 A1B      -0.090600
     11 C46        -21.1660    34.1520   -13.5980 c3         1 A1B      -0.090600
     12 C47        -15.8890    31.5840   -16.6370 cd         1 A1B       0.414400
     13 C12        -13.9530    30.0910    -2.5180 c3         1 A1B      -0.130000
     14 C13        -15.1290    29.1620    -2.1600 c3         1 A1B      -0.082100
     15 C14        -14.0360    30.4200    -4.0190 c3         1 A1B      -0.069400
     16 C15        -12.8870    31.2330    -4.6010 c3         1 A1B      -0.099100
     17 C16        -12.6500    29.3610    -2.1850 c3         1 A1B      -0.082100
     18 C17        -15.2980    33.8330    -8.5850 c3         1 A1B      -0.025100
     19 C18        -16.7390    34.1200    -8.9110 ca         1 A1B      -0.122300
     20 C19        -17.1560    35.3450    -9.4110 ca         1 A1B      -0.067500
     21 C20        -18.4940    35.6180    -9.6770 ca         1 A1B      -0.168000
     22 C21        -19.4570    34.6440    -9.4360 ca         1 A1B       0.140100
     23 C22        -19.0530    33.3980    -8.9500 ca         1 A1B      -0.168000
     24 C23        -17.7190    33.1480    -8.6960 ca         1 A1B      -0.067500
     25 C24        -21.2260    36.0450   -10.1590 c3         1 A1B       0.147900
     26 C25        -13.2880    37.8380    -7.5450 c3         1 A1B       0.142000
     27 C26        -12.1170    37.2070    -8.2530 cx         1 A1B      -0.134700
     28 C27        -11.3580    37.9130    -9.3410 cx         1 A1B      -0.116400
     29 C28        -12.2180    36.7220    -9.6640 cx         1 A1B      -0.111000
     30 C29        -11.5520    35.3920    -9.9570 c6         1 A1B      -0.074400
     31 C30        -11.4380    35.1430   -11.4540 c6         1 A1B       0.215300
     32 C10        -15.1100    32.3970    -2.0040 c          1 A1B       0.510100
     33 C31        -13.2520    36.6520   -11.9480 c6         1 A1B       0.215300
     34 C32        -13.4770    36.9710   -10.4720 c6         1 A1B      -0.074400
     35 C33        -15.6020    33.4070   -12.7010 ca         1 A1B       0.451900
     36 C34        -13.9880    32.0480   -11.9590 ca         1 A1B       0.433900
     37 C35        -13.5920    34.2520   -12.1640 ca         1 A1B       0.444900
     38 C36        -12.3720    30.6460   -10.7880 c6         1 A1B       0.195800
     39 C37        -12.7030    30.8890    -9.3180 c6         1 A1B       0.051600
     40 C38        -14.8230    29.7160    -9.9020 cc         1 A1B       0.393800
     41 C39        -14.5260    29.7500   -11.3650 c6         1 A1B       0.179500
     42 C4         -13.0790    35.1000    -1.1790 c6         1 A1B      -0.095400
     43 C40        -15.5930    29.5010    -7.9780 cd         1 A1B       0.516900
     44 C5         -13.3120    34.1000    -2.3000 c6         1 A1B       0.092000
     45 C6         -15.6870    34.7090    -2.4490 c6         1 A1B       0.019700
     46 C7         -15.4890    35.7580    -1.3570 c6         1 A1B      -0.074400
     47 C8         -14.0530    36.2650    -1.2950 c6         1 A1B      -0.077400
     48 C9         -15.6710    35.3090    -3.8580 c          1 A1B       0.596100
     49 N1         -14.3270    36.8750    -7.2150 ns         1 A1B      -0.494900
     50 N10        -13.9610    30.2310    -9.0190 na         1 A1B      -0.062700
     51 N11        -14.4470    30.1100    -7.7800 nc         1 A1B      -0.549800
     52 N12        -15.8730    29.2350    -9.2710 nd         1 A1B      -0.688000
     53 N13        -16.3120    32.5280   -15.8270 nc         1 A1B      -0.701000
     54 N14        -16.9340    30.5350   -15.0250 nd         1 A1B      -0.517800
     55 N15        -16.2590    30.3940   -16.1680 na         1 A1B      -0.194700
     56 N2         -15.4080    34.4470    -4.8500 ns         1 A1B      -0.483900
     57 N3         -14.7000    33.6420    -2.3100 n          1 A1B      -0.398800
     58 N4         -12.7390    35.2980   -12.0810 nh         1 A1B      -0.743300
     59 N5         -14.8380    34.4910   -12.5760 nb         1 A1B      -0.352000
     60 N6         -15.2390    32.1640   -12.3930 nb         1 A1B      -0.344000
     61 N7         -13.1180    33.0420   -11.8460 nb         1 A1B      -0.371000
     62 N9         -13.5570    30.7990   -11.6110 nh         1 A1B      -0.754300
     63 O4         -13.4620    31.4770    -0.6140 o          1 A1B      -0.496100
     64 O5         -20.7780    34.8090    -9.6430 os         1 A1B      -0.341100
     65 H1         -16.2420    35.3420    -6.5290 h1         1 A1B       0.081700
     66 H3         -15.6950    32.8310    -6.7320 hc         1 A1B       0.058700
     67 H4         -14.0200    33.2900    -6.9320 hc         1 A1B       0.058700
     68 H56        -17.7790    31.7370   -12.9260 h1         1 A1B       0.099700
     69 H57        -18.8550    33.8410   -14.8490 hc         1 A1B       0.053700
     70 H58        -19.5090    32.2260   -14.7070 hc         1 A1B       0.053700
     71 H59        -19.4090    34.1950   -12.3850 hc         1 A1B       0.054700
     72 H60        -21.0510    32.6100   -11.3580 hc         1 A1B       0.035200
     73 H62        -20.8490    31.5190   -12.7310 hc         1 A1B       0.035200
     74 H61        -19.5060    31.8240   -11.6280 hc         1 A1B       0.035200
     75 H63        -21.8460    34.4820   -12.8120 hc         1 A1B       0.035200
     76 H65        -20.8890    35.0260   -14.1910 hc         1 A1B       0.035200
     77 H64        -21.7190    33.4700   -14.2490 hc         1 A1B       0.035200
     78 H67        -15.3250    31.7150   -17.5480 h5         1 A1B       0.064100
     79 H15        -15.1630    28.9550    -1.0900 hc         1 A1B       0.045367
     80 H17        -16.0890    29.5750    -2.4620 hc         1 A1B       0.045367
     81 H16        -14.9920    28.2110    -2.6780 hc         1 A1B       0.045367
     82 H19        -14.9860    30.9180    -4.2380 hc         1 A1B       0.048700
     83 H18        -14.0870    29.4640    -4.5470 hc         1 A1B       0.048700
     84 H20        -13.0140    31.3280    -5.6780 hc         1 A1B       0.037367
     85 H21        -12.8390    32.2440    -4.1960 hc         1 A1B       0.037367
     86 H22        -11.9200    30.7620    -4.4280 hc         1 A1B       0.037367
     87 H25        -12.6590    28.9740    -1.1670 hc         1 A1B       0.045367
     88 H23        -12.5360    28.5120    -2.8610 hc         1 A1B       0.045367
     89 H24        -11.7700    29.9950    -2.2930 hc         1 A1B       0.045367
     90 H27        -14.9900    32.9180    -9.0980 hc         1 A1B       0.051200
     91 H26        -14.6560    34.6230    -8.9770 hc         1 A1B       0.051200
     92 H28        -16.4280    36.1240    -9.6030 ha         1 A1B       0.110000
     93 H29        -18.7600    36.5930   -10.0630 ha         1 A1B       0.122000
     94 H30        -19.7960    32.6290    -8.7750 ha         1 A1B       0.122000
     95 H31        -17.4310    32.1710    -8.3220 ha         1 A1B       0.110000
     96 H32        -22.3060    35.9640   -10.2640 h1         1 A1B       0.040367
     97 H33        -20.9990    36.8760    -9.4870 h1         1 A1B       0.040367
     98 H34        -20.7940    36.2590   -11.1410 h1         1 A1B       0.040367
     99 H35        -12.9480    38.3360    -6.6330 h1         1 A1B       0.052200
    100 H36        -13.7520    38.6050    -8.1630 h1         1 A1B       0.052200
    101 H37        -11.5110    36.5810    -7.6090 hc         1 A1B       0.099700
    102 H38        -10.2800    37.8080    -9.3590 hc         1 A1B       0.072200
    103 H39        -11.7130    38.8870    -9.6590 hc         1 A1B       0.072200
    104 H41        -12.1420    34.5820    -9.5120 hc         1 A1B       0.051200
    105 H40        -10.5620    35.3520    -9.4970 hc         1 A1B       0.051200
    106 H43        -11.0370    34.1550   -11.6640 h1         1 A1B       0.067700
    107 H42        -10.7650    35.8740   -11.9100 h1         1 A1B       0.067700
    108 H45        -12.5150    37.3340   -12.3780 h1         1 A1B       0.067700
    109 H44        -14.1720    36.7590   -12.5170 h1         1 A1B       0.067700
    110 H46        -13.8120    38.0060   -10.3740 hc         1 A1B       0.051200
    111 H47        -14.2940    36.3420   -10.1090 hc         1 A1B       0.051200
    112 H49        -12.0000    29.6300   -10.9280 h1         1 A1B       0.081200
    113 H50        -11.5920    31.3320   -11.1040 h1         1 A1B       0.081200
    114 H52        -12.8020    31.9560    -9.1110 h1         1 A1B       0.076200
    115 H51        -11.9230    30.4850    -8.6740 h1         1 A1B       0.076200
    116 H53        -14.1060    28.7930   -11.6840 h1         1 A1B       0.102200
    117 H54        -15.4350    29.9190   -11.9350 h1         1 A1B       0.102200
    118 H7         -12.0470    35.4520    -1.2330 hc         1 A1B       0.053700
    119 H6         -13.1990    34.5970    -0.2160 hc         1 A1B       0.053700
    120 H55        -16.2500    29.2440    -7.1610 h5         1 A1B       0.063100
    121 H8         -12.6340    33.2560    -2.2120 h1         1 A1B       0.064700
    122 H9         -13.1000    34.5640    -3.2680 h1         1 A1B       0.064700
    123 H10        -16.6760    34.2610    -2.3280 h1         1 A1B       0.103700
    124 H12        -16.1900    36.5760    -1.5110 hc         1 A1B       0.060700
    125 H11        -15.7530    35.2930    -0.4030 hc         1 A1B       0.060700
    126 H14        -13.8220    36.8440    -2.1940 hc         1 A1B       0.052200
    127 H13        -13.9370    36.9440    -0.4490 hc         1 A1B       0.052200
    128 H2         -15.2200    36.9710    -7.6700 hn         1 A1B       0.319500
    129 H66        -16.0800    29.4810   -16.5580 hn         1 A1B       0.379000
    130 H5         -15.1050    33.5140    -4.6240 hn         1 A1B       0.328500
    131 H48        -17.0520    34.5120   -13.5170 hn         1 A1B       0.503000
    132 N8         -16.8540    33.5870   -13.1650 nu         1 A1B      -0.887100
    133 O3         -16.2810    32.0570    -1.9280 o          1 A1B      -0.593100
    134 C11        -14.0640    31.3370    -1.6520 c          1 A1B       0.516100
@<TRIPOS>BOND
     1     1     2 1   
     2     1     3 1   
     3     1    56 1   
     4     1    65 1   
     5     2     4 2   
     6     2    49 1   
     7     3    18 1   
     8     3    66 1   
     9     3    67 1   
    10     5    48 2   
    11     6     7 1   
    12     6     8 1   
    13     6    68 1   
    14     6   132 1   
    15     7    53 1   
    16     7    54 2   
    17     8     9 1   
    18     8    69 1   
    19     8    70 1   
    20     9    10 1   
    21     9    11 1   
    22     9    71 1   
    23    10    72 1   
    24    10    73 1   
    25    10    74 1   
    26    11    75 1   
    27    11    76 1   
    28    11    77 1   
    29    12    53 2   
    30    12    55 1   
    31    12    78 1   
    32    13    14 1   
    33    13    15 1   
    34    13    17 1   
    35    13   134 1   
    36    14    79 1   
    37    14    80 1   
    38    14    81 1   
    39    15    16 1   
    40    15    82 1   
    41    15    83 1   
    42    16    84 1   
    43    16    85 1   
    44    16    86 1   
    45    17    87 1   
    46    17    88 1   
    47    17    89 1   
    48    18    19 1   
    49    18    90 1   
    50    18    91 1   
    51    19    20 ar  
    52    19    24 ar  
    53    20    21 ar  
    54    20    92 1   
    55    21    22 ar  
    56    21    93 1   
    57    22    23 ar  
    58    22    64 1   
    59    23    24 ar  
    60    23    94 1   
    61    24    95 1   
    62    25    64 1   
    63    25    96 1   
    64    25    97 1   
    65    25    98 1   
    66    26    27 1   
    67    26    49 1   
    68    26    99 1   
    69    26   100 1   
    70    27    28 1   
    71    27    29 1   
    72    27   101 1   
    73    28    29 1   
    74    28   102 1   
    75    28   103 1   
    76    29    30 1   
    77    29    34 1   
    78    30    31 1   
    79    30   104 1   
    80    30   105 1   
    81    31    58 1   
    82    31   106 1   
    83    31   107 1   
    84    32    57 1   
    85    32   133 2   
    86    32   134 1   
    87    33    34 1   
    88    33    58 1   
    89    33   108 1   
    90    33   109 1   
    91    34   110 1   
    92    34   111 1   
    93    35    59 ar  
    94    35    60 ar  
    95    35   132 1   
    96    36    60 ar  
    97    36    61 ar  
    98    36    62 1   
    99    37    58 1   
   100    37    59 ar  
   101    37    61 ar  
   102    38    39 1   
   103    38    62 1   
   104    38   112 1   
   105    38   113 1   
   106    39    50 1   
   107    39   114 1   
   108    39   115 1   
   109    40    41 1   
   110    40    50 1   
   111    40    52 2   
   112    41    62 1   
   113    41   116 1   
   114    41   117 1   
   115    42    44 1   
   116    42    47 1   
   117    42   118 1   
   118    42   119 1   
   119    43    51 2   
   120    43    52 1   
   121    43   120 1   
   122    44    57 1   
   123    44   121 1   
   124    44   122 1   
   125    45    46 1   
   126    45    48 1   
   127    45    57 1   
   128    45   123 1   
   129    46    47 1   
   130    46   124 1   
   131    46   125 1   
   132    47   126 1   
   133    47   127 1   
   134    48    56 1   
   135    49   128 1   
   136    50    51 1   
   137    54    55 1   
   138    55   129 1   
   139    56   130 1   
   140    63   134 2   
   141   131   132 1   
@<TRIPOS>SUBSTRUCTURE
     1 A1B         1 TEMP              0 ****  ****    0 ROOT
