@<TRIPOS>MOLECULE
A1B
   40    43     1     0     0
SMALL
abcg2


@<TRIPOS>ATOM
      1 N2          15.8000     4.0380     5.8440 na         1 A1B      -0.315400
      2 C3          15.1740     1.4830     3.5000 ca         1 A1B       0.435900
      3 C6          16.5480     4.5790     4.8290 cc         1 A1B      -0.178100
      4 C9          13.9270    -1.1290    -0.3780 c6         1 A1B      -0.064400
      5 C12         12.0220    -0.5420     1.6230 c6         1 A1B      -0.068900
      6 C14         11.8520     1.0330    -0.2760 c6         1 A1B      -0.068900
      7 C1          14.1110     0.1800     0.4140 c6         1 A1B       0.168000
      8 C10         12.4510    -1.3570    -0.7040 c6         1 A1B      -0.059700
      9 C11         11.7070    -1.6540     0.5990 c6         1 A1B      -0.071400
     10 C13         12.7240     0.6230     0.9180 c6         1 A1B      -0.083700
     11 C15         11.8670    -0.0910    -1.3310 c6         1 A1B      -0.071400
     12 C2          15.1240    -0.0500     1.5480 c3         1 A1B       0.204800
     13 C4          15.6570     2.6650     4.1040 ca         1 A1B      -0.263800
     14 C5          16.4890     3.7650     3.7350 cd         1 A1B      -0.208200
     15 C7          15.2490     2.8750     5.4240 ca         1 A1B       0.145500
     16 C8          14.0730     1.0090     5.4580 ca         1 A1B       0.178900
     17 N1          15.5060     1.1590     2.2390 nu         1 A1B      -0.930100
     18 N3          14.4560     2.0680     6.1390 nb         1 A1B      -0.229000
     19 N4          14.3800     0.6760     4.2040 nb         1 A1B      -0.304000
     20 O1          14.6460     1.1460    -0.4810 oh         1 A1B      -0.664000
     21 H7          15.6760     4.4430     6.7580 hn         1 A1B       0.362000
     22 H6          17.0680     5.5110     4.9680 h4         1 A1B       0.217000
     23 H9          14.5290    -1.0830    -1.2890 hc         1 A1B       0.052200
     24 H15         12.6340    -0.9240     2.4410 hc         1 A1B       0.043950
     25 H14         11.1050    -0.1720     2.0860 hc         1 A1B       0.043950
     26 H17         12.1780     1.9800    -0.7080 hc         1 A1B       0.043950
     27 H18         10.8360     1.2040     0.0890 hc         1 A1B       0.043950
     28 H11         12.3540    -2.2000    -1.3930 hc         1 A1B       0.051700
     29 H12         10.6330    -1.7130     0.4040 hc         1 A1B       0.040950
     30 H13         12.0050    -2.6310     0.9880 hc         1 A1B       0.040950
     31 H16         12.8300     1.4650     1.6100 hc         1 A1B       0.058700
     32 H19         10.8570    -0.2880    -1.7010 hc         1 A1B       0.040950
     33 H20         12.4640     0.2000    -2.1990 hc         1 A1B       0.040950
     34 H3          14.7350    -0.7610     2.2740 h1         1 A1B       0.067700
     35 H2          16.0240    -0.4950     1.1140 h1         1 A1B       0.067700
     36 H5          16.9800     3.9410     2.7910 ha         1 A1B       0.202000
     37 H8          13.4260     0.3100     5.9790 h5         1 A1B       0.043100
     38 H4          16.1690     1.7590     1.7760 hn         1 A1B       0.495000
     39 H1          14.5580     2.0170    -0.0770 ho         1 A1B       0.441000
     40 H10         14.3060    -1.9790     0.1990 hc         1 A1B       0.052200
@<TRIPOS>BOND
     1     1     3 1   
     2     1    15 1   
     3     1    21 1   
     4     2    13 ar  
     5     2    17 1   
     6     2    19 ar  
     7     3    14 2   
     8     3    22 1   
     9     4     7 1   
    10     4     8 1   
    11     4    23 1   
    12     4    40 1   
    13     5     9 1   
    14     5    10 1   
    15     5    24 1   
    16     5    25 1   
    17     6    10 1   
    18     6    11 1   
    19     6    26 1   
    20     6    27 1   
    21     7    10 1   
    22     7    12 1   
    23     7    20 1   
    24     8     9 1   
    25     8    11 1   
    26     8    28 1   
    27     9    29 1   
    28     9    30 1   
    29    10    31 1   
    30    11    32 1   
    31    11    33 1   
    32    12    17 1   
    33    12    34 1   
    34    12    35 1   
    35    13    14 1   
    36    13    15 ar  
    37    14    36 1   
    38    15    18 ar  
    39    16    18 ar  
    40    16    19 ar  
    41    16    37 1   
    42    17    38 1   
    43    20    39 1   
@<TRIPOS>SUBSTRUCTURE
     1 A1B         1 TEMP              0 ****  ****    0 ROOT
