@<TRIPOS>MOLECULE
A1B
   29    30     1     0     0
SMALL
abcg2


@<TRIPOS>ATOM
      1 O1          13.6950    -0.0570    -0.9800 oh         1 A1B      -0.653000
      2 C1          14.0820    -2.1840    -0.0460 c3         1 A1B      -0.091100
      3 C2          14.3990    -0.7030     0.0580 c3         1 A1B       0.163300
      4 C3          14.0370    -0.0740     1.4210 c3         1 A1B       0.210500
      5 C4          12.5790    -0.2750     1.8170 c3         1 A1B      -0.113100
      6 C5          15.3150     0.0300     3.5710 ca         1 A1B       0.436900
      7 C6          16.5290    -0.1700     5.5180 ca         1 A1B       0.182900
      8 C7          15.4980     1.7510     5.1940 ca         1 A1B       0.146500
      9 C8          14.9570     1.3400     3.9630 ca         1 A1B      -0.251800
     10 C10         14.2730     3.4290     4.4040 cc         1 A1B      -0.182100
     11 C9          14.1710     2.4360     3.4770 cd         1 A1B      -0.206200
     12 N1          14.9530    -0.5730     2.4260 nu         1 A1B      -0.926100
     13 N2          16.0970    -0.6990     4.3800 nb         1 A1B      -0.312000
     14 N3          16.2860     1.0320     5.9970 nb         1 A1B      -0.236000
     15 N4          15.0750     3.0120     5.4350 na         1 A1B      -0.317400
     16 H6          13.9820     0.8610    -1.0220 ho         1 A1B       0.443000
     17 H5          14.5850    -2.7650     0.7280 hc         1 A1B       0.046700
     18 H3          13.0120    -2.3740     0.0350 hc         1 A1B       0.046700
     19 H4          14.4220    -2.5740    -1.0060 hc         1 A1B       0.046700
     20 H1          15.4830    -0.5700    -0.0680 h1         1 A1B       0.040700
     21 H2          14.2330     0.9950     1.3060 h1         1 A1B       0.055700
     22 H8          12.3430     0.2880     2.7200 hc         1 A1B       0.048367
     23 H7          11.9100     0.0690     1.0290 hc         1 A1B       0.048367
     24 H9          12.3640    -1.3250     2.0180 hc         1 A1B       0.048367
     25 H11         17.1600    -0.8130     6.1240 h5         1 A1B       0.043100
     26 H13         13.8310     4.4110     4.4120 h4         1 A1B       0.216000
     27 H12         13.5940     2.5030     2.5700 ha         1 A1B       0.201000
     28 H10         15.2250    -1.5430     2.3750 hn         1 A1B       0.501000
     29 H14         15.3100     3.5540     6.2510 hn         1 A1B       0.361000
@<TRIPOS>BOND
     1     1     3 1   
     2     1    16 1   
     3     2     3 1   
     4     2    17 1   
     5     2    18 1   
     6     2    19 1   
     7     3     4 1   
     8     3    20 1   
     9     4     5 1   
    10     4    12 1   
    11     4    21 1   
    12     5    22 1   
    13     5    23 1   
    14     5    24 1   
    15     6     9 ar  
    16     6    12 1   
    17     6    13 ar  
    18     7    13 ar  
    19     7    14 ar  
    20     7    25 1   
    21     8     9 ar  
    22     8    14 ar  
    23     8    15 1   
    24     9    11 1   
    25    10    11 2   
    26    10    15 1   
    27    10    26 1   
    28    11    27 1   
    29    12    28 1   
    30    15    29 1   
@<TRIPOS>SUBSTRUCTURE
     1 A1B         1 TEMP              0 ****  ****    0 ROOT
