@<TRIPOS>MOLECULE
A1B
   31    33     1     0     0
SMALL
abcg2


@<TRIPOS>ATOM
      1 N2          15.1750    -0.1230     3.6830 nb         1 A1B      -0.308000
      2 C3          13.6840     0.1820    -0.0850 c2         1 A1B      -0.218200
      3 C6          15.3440     2.1610     0.8430 c6         1 A1B       0.225800
      4 C9          15.4310     2.0150     5.2190 ca         1 A1B       0.141500
      5 C12         15.3760     4.2120     4.9020 cc         1 A1B      -0.183100
      6 C1          15.8320    -1.0040     0.5440 c3         1 A1B       0.154600
      7 C10         15.2940     2.2380     3.8360 ca         1 A1B      -0.245800
      8 C11         15.2480     3.6610     3.6620 cd         1 A1B      -0.207200
      9 C2          14.6370    -0.1750     1.0220 c6         1 A1B       0.267700
     10 C4          13.3870     1.4270    -0.4430 c2         1 A1B      -0.223200
     11 C5          14.0670     2.6180     0.1590 c6         1 A1B      -0.066200
     12 C7          15.1870     1.0580     3.0540 ca         1 A1B       0.445900
     13 C8          15.3030    -0.1720     5.0040 ca         1 A1B       0.180900
     14 N1          15.0820     1.0280     1.7070 nh         1 A1B      -0.781300
     15 N3          15.4520     0.8330     5.8390 nb         1 A1B      -0.233000
     16 N4          15.4940     3.2170     5.8340 na         1 A1B      -0.315400
     17 O1          15.3350    -2.1620    -0.0830 oh         1 A1B      -0.662000
     18 H5          13.1960    -0.6520    -0.5740 ha         1 A1B       0.194000
     19 H9          16.0620     1.8520     0.0770 h1         1 A1B       0.054700
     20 H10         15.8270     2.9570     1.3970 h1         1 A1B       0.054700
     21 H13         15.3890     5.2490     5.1960 h4         1 A1B       0.216000
     22 H4          16.4520    -1.2460     1.4160 h1         1 A1B       0.029200
     23 H3          16.4450    -0.4040    -0.1400 h1         1 A1B       0.029200
     24 H12         15.1170     4.2300     2.7580 ha         1 A1B       0.202000
     25 H1          14.0890    -0.7830     1.7450 h1         1 A1B       0.103700
     26 H6          12.6430     1.5990    -1.2130 ha         1 A1B       0.177000
     27 H7          14.3070     3.3470    -0.6190 hc         1 A1B       0.056700
     28 H8          13.4070     3.1300     0.8670 hc         1 A1B       0.056700
     29 H11         15.2890    -1.1660     5.4390 h5         1 A1B       0.044100
     30 H14         15.5840     3.3530     6.8290 hn         1 A1B       0.362000
     31 H2          16.0800    -2.6740    -0.4090 ho         1 A1B       0.445000
@<TRIPOS>BOND
     1     1    12 ar  
     2     1    13 ar  
     3     2     9 1   
     4     2    10 2   
     5     2    18 1   
     6     3    11 1   
     7     3    14 1   
     8     3    19 1   
     9     3    20 1   
    10     4     7 ar  
    11     4    15 ar  
    12     4    16 1   
    13     5     8 2   
    14     5    16 1   
    15     5    21 1   
    16     6     9 1   
    17     6    17 1   
    18     6    22 1   
    19     6    23 1   
    20     7     8 1   
    21     7    12 ar  
    22     8    24 1   
    23     9    14 1   
    24     9    25 1   
    25    10    11 1   
    26    10    26 1   
    27    11    27 1   
    28    11    28 1   
    29    12    14 1   
    30    13    15 ar  
    31    13    29 1   
    32    16    30 1   
    33    17    31 1   
@<TRIPOS>SUBSTRUCTURE
     1 A1B         1 TEMP              0 ****  ****    0 ROOT
