@<TRIPOS>MOLECULE
A1B
   19    20     1     0     0
SMALL
abcg2


@<TRIPOS>ATOM
      1 C9           0.3810     2.5280   -10.3380 ca         1 A1B       0.286900
      2 N3           1.3370     1.6580   -10.6000 nb         1 A1B      -0.313000
      3 N2           1.5010     1.2050   -11.8240 nb         1 A1B      -0.309000
      4 C8           0.6950     1.6220   -12.7830 ca         1 A1B       0.274900
      5 C7          -0.3330     2.5360   -12.5790 ca         1 A1B      -0.108000
      6 C6          -0.5060     3.0250   -11.3000 cp         1 A1B      -0.046000
      7 C4          -1.5520     4.0000   -10.9540 cp         1 A1B      -0.006000
      8 C5          -2.8040     3.9560   -11.5600 ca         1 A1B      -0.149000
      9 C1          -3.7570     4.8960   -11.2010 ca         1 A1B       0.337900
     10 C3          -1.3280     5.0020   -10.0130 ca         1 A1B      -0.149000
     11 C2          -2.3490     5.8950    -9.7300 ca         1 A1B       0.337900
     12 N1          -3.5440     5.8520   -10.3050 nb         1 A1B      -0.655000
     13 H1           0.3060     2.8350    -9.3010 h4         1 A1B       0.031100
     14 H2           0.8820     1.2120   -13.7680 h4         1 A1B       0.031100
     15 H3          -0.9510     2.8550   -13.4080 ha         1 A1B       0.134000
     16 H4          -3.0510     3.1940   -12.2880 ha         1 A1B       0.127500
     17 H5          -4.7380     4.8700   -11.6620 h4         1 A1B       0.023600
     18 H6          -0.3720     5.1090    -9.5180 ha         1 A1B       0.127500
     19 H7          -2.1860     6.6840    -9.0040 h4         1 A1B       0.023600
@<TRIPOS>BOND
     1     1     2 ar  
     2     1     6 ar  
     3     1    13 1   
     4     2     3 ar  
     5     3     4 ar  
     6     4     5 ar  
     7     4    14 1   
     8     5     6 ar  
     9     5    15 1   
    10     6     7 1   
    11     7     8 ar  
    12     7    10 ar  
    13     8     9 ar  
    14     8    16 1   
    15     9    12 ar  
    16     9    17 1   
    17    10    11 ar  
    18    10    18 1   
    19    11    12 ar  
    20    11    19 1   
@<TRIPOS>SUBSTRUCTURE
     1 A1B         1 TEMP              0 ****  ****    0 ROOT
