@<TRIPOS>MOLECULE
A1B
   35    37     1     0     0
SMALL
abcg2


@<TRIPOS>ATOM
      1 N2          14.9410    -0.0960     4.1500 nb         1 A1B      -0.311000
      2 C3          11.8580     0.0540     1.1870 c3         1 A1B      -0.084100
      3 C6          14.3450     1.7690    -0.0250 c5         1 A1B      -0.093400
      4 C9          15.2480    -0.1430     5.4410 ca         1 A1B       0.180900
      5 C12         15.1430     3.6880     4.0950 cc         1 A1B      -0.204200
      6 C1          12.9920    -2.1860     1.0340 c3         1 A1B      -0.084100
      7 C10         15.4250     2.0430     5.6400 ca         1 A1B       0.145500
      8 C11         15.1160     2.2670     4.2870 ca         1 A1B      -0.252800
      9 C13         15.4590     4.2390     5.3000 cd         1 A1B      -0.186100
     10 C4          14.4060    -0.1520     1.4580 c5         1 A1B       0.249500
     11 C5          14.7190     0.2910     0.0250 c5         1 A1B      -0.091400
     12 C7          14.6360     2.2760     1.3830 c5         1 A1B       0.225800
     13 C8          14.8690     1.0920     3.5310 ca         1 A1B       0.440900
     14 N1          14.5720     1.0880     2.2210 nh         1 A1B      -0.776300
     15 N3          15.5040     0.8600     6.2540 nb         1 A1B      -0.239000
     16 N4          15.6290     3.2440     6.2270 na         1 A1B      -0.317400
     17 H6          11.8730     1.0530     1.6230 hc         1 A1B       0.032367
     18 H7          11.8500     0.1580     0.1000 hc         1 A1B       0.032367
     19 H8          10.9130    -0.4110     1.4720 hc         1 A1B       0.032367
     20 H12         14.9150     2.3200    -0.7720 hc         1 A1B       0.053200
     21 H11         13.2900     1.8970    -0.2650 hc         1 A1B       0.053200
     22 H15         15.2930    -1.1380     5.8740 h5         1 A1B       0.041100
     23 H16         14.9580     4.2490     3.1950 ha         1 A1B       0.200000
     24 H3          12.0540    -2.6920     1.2680 hc         1 A1B       0.032367
     25 H4          13.0740    -2.1400    -0.0540 hc         1 A1B       0.032367
     26 H2          13.8060    -2.8130     1.4030 hc         1 A1B       0.032367
     27 H17         15.5790     5.2740     5.5740 h4         1 A1B       0.215000
     28 H5          12.9180    -0.9310     2.7480 hc         1 A1B       0.073700
     29 H1          15.1500    -0.8750     1.7990 h1         1 A1B       0.076700
     30 H10         14.1880    -0.3000    -0.7210 hc         1 A1B       0.053700
     31 H9          15.7860     0.1670    -0.1670 hc         1 A1B       0.053700
     32 H13         15.6290     2.7320     1.4420 h1         1 A1B       0.048700
     33 H14         13.9060     3.0250     1.6960 h1         1 A1B       0.048700
     34 H18         15.8700     3.3800     7.1960 hn         1 A1B       0.360000
     35 C2          13.0270    -0.7980     1.6670 c3         1 A1B      -0.072700
@<TRIPOS>BOND
     1     1     4 ar  
     2     1    13 ar  
     3     2    17 1   
     4     2    18 1   
     5     2    19 1   
     6     2    35 1   
     7     3    11 1   
     8     3    12 1   
     9     3    20 1   
    10     3    21 1   
    11     4    15 ar  
    12     4    22 1   
    13     5     8 1   
    14     5     9 2   
    15     5    23 1   
    16     6    24 1   
    17     6    25 1   
    18     6    26 1   
    19     6    35 1   
    20     7     8 ar  
    21     7    15 ar  
    22     7    16 1   
    23     8    13 ar  
    24     9    16 1   
    25     9    27 1   
    26    10    11 1   
    27    10    14 1   
    28    10    29 1   
    29    10    35 1   
    30    11    30 1   
    31    11    31 1   
    32    12    14 1   
    33    12    32 1   
    34    12    33 1   
    35    13    14 1   
    36    16    34 1   
    37    28    35 1   
@<TRIPOS>SUBSTRUCTURE
     1 A1B         1 TEMP              0 ****  ****    0 ROOT
