@<TRIPOS>MOLECULE
A1B
   39    41     1     0     0
SMALL
abcg2


@<TRIPOS>ATOM
      1 N2          15.0550    -0.3070     3.7660 nb         1 A1B      -0.308000
      2 C6          14.8460     0.8450     3.1140 ca         1 A1B       0.435900
      3 C9          15.0570     2.0610     3.8200 ca         1 A1B      -0.249800
      4 C12         14.4130    -0.5220     1.1430 c6         1 A1B       0.235500
      5 C14         13.2190    -0.6640     0.1770 c6         1 A1B      -0.072400
      6 C10         15.0080     3.4780     3.5890 cc         1 A1B      -0.206200
      7 C11         15.3550     4.0820     4.7590 cd         1 A1B      -0.184100
      8 C13         15.7680    -0.7640     0.4740 c3         1 A1B       0.143600
      9 C2          12.5550     0.6540    -0.2520 c6         1 A1B      -0.043000
     10 C4          13.6490     1.7140    -0.3200 c6         1 A1B      -0.080400
     11 C5          14.2590     1.9850     1.0460 c6         1 A1B       0.224800
     12 C7          15.4250    -0.2960     5.0390 ca         1 A1B       0.182900
     13 C8          15.4510     1.9000     5.1630 ca         1 A1B       0.143500
     14 N1          14.4420     0.7690     1.8250 nh         1 A1B      -0.769300
     15 N3          15.6430     0.7480     5.8090 nb         1 A1B      -0.236000
     16 N4          15.6200     3.1270     5.7040 na         1 A1B      -0.317400
     17 O1          15.7960    -2.0900     0.0010 oh         1 A1B      -0.659000
     18 H5          11.2040    -0.3400    -1.6360 hc         1 A1B       0.035700
     19 H7          11.3980     1.3870    -1.9400 hc         1 A1B       0.035700
     20 H6          12.6820     0.2610    -2.3870 hc         1 A1B       0.035700
     21 H1          14.3130    -1.2760     1.9190 h1         1 A1B       0.107700
     22 H19         12.4640    -1.3150     0.6260 hc         1 A1B       0.055200
     23 H20         13.5710    -1.1940    -0.7110 hc         1 A1B       0.055200
     24 H4          11.8220     1.1170     1.7670 hc         1 A1B       0.035700
     25 H2          11.0400     2.0350     0.4790 hc         1 A1B       0.035700
     26 H3          10.6460     0.3340     0.7250 hc         1 A1B       0.035700
     27 H13         14.7580     4.0070     2.6870 ha         1 A1B       0.201000
     28 H14         15.4370     5.1300     4.9950 h4         1 A1B       0.216000
     29 H17         16.5560    -0.5870     1.2180 h1         1 A1B       0.024200
     30 H16         15.9230    -0.0420    -0.3370 h1         1 A1B       0.024200
     31 H9          14.4140     1.4030    -1.0370 hc         1 A1B       0.046700
     32 H8          13.2480     2.6600    -0.6940 hc         1 A1B       0.046700
     33 H10         15.2080     2.5180     0.9310 h1         1 A1B       0.045200
     34 H11         13.5820     2.6450     1.5900 h1         1 A1B       0.045200
     35 H12         15.5670    -1.2710     5.4940 h5         1 A1B       0.043100
     36 H15         15.9050     3.3030     6.6540 hn         1 A1B       0.361000
     37 H18         16.5850    -2.2040    -0.5360 ho         1 A1B       0.444000
     38 C3          11.9250     0.4810    -1.6320 c3         1 A1B      -0.084600
     39 C1          11.4610     1.0610     0.7390 c3         1 A1B      -0.084600
@<TRIPOS>BOND
     1     1     2 ar  
     2     1    12 ar  
     3     2     3 ar  
     4     2    14 1   
     5     3     6 1   
     6     3    13 ar  
     7     4     5 1   
     8     4     8 1   
     9     4    14 1   
    10     4    21 1   
    11     5     9 1   
    12     5    22 1   
    13     5    23 1   
    14     6     7 2   
    15     6    27 1   
    16     7    16 1   
    17     7    28 1   
    18     8    17 1   
    19     8    29 1   
    20     8    30 1   
    21     9    10 1   
    22     9    38 1   
    23     9    39 1   
    24    10    11 1   
    25    10    31 1   
    26    10    32 1   
    27    11    14 1   
    28    11    33 1   
    29    11    34 1   
    30    12    15 ar  
    31    12    35 1   
    32    13    15 ar  
    33    13    16 1   
    34    16    36 1   
    35    17    37 1   
    36    18    38 1   
    37    19    38 1   
    38    20    38 1   
    39    24    39 1   
    40    25    39 1   
    41    26    39 1   
@<TRIPOS>SUBSTRUCTURE
     1 A1B         1 TEMP              0 ****  ****    0 ROOT
