@<TRIPOS>MOLECULE
A1B
   37    39     1     0     0
SMALL
abcg2


@<TRIPOS>ATOM
      1 O1          10.6360    -2.6110    -0.7590 oh         1 A1B      -0.667000
      2 C1          11.7070    -2.1710     0.0570 c6         1 A1B       0.170300
      3 C2          13.0080    -2.9330    -0.2400 c6         1 A1B      -0.081400
      4 C3          14.2640    -2.0780    -0.0300 c6         1 A1B      -0.076400
      5 C4          14.0920    -1.0930     1.1230 c6         1 A1B       0.178000
      6 C5          15.4280    -0.3560     1.3420 c3         1 A1B       0.203800
      7 C6          15.1270     1.0490     3.3670 ca         1 A1B       0.440900
      8 C7          15.2930     2.2860     4.0250 ca         1 A1B      -0.262800
      9 C8          15.6980     3.6080     3.6770 cc         1 A1B      -0.206200
     10 C10         15.0080     2.2830     5.3940 ca         1 A1B       0.148500
     11 C11         14.4790     0.1400     5.3860 ca         1 A1B       0.187900
     12 C12         12.9690    -0.0980     0.7600 c6         1 A1B      -0.076400
     13 C13         11.9130    -0.6870    -0.1850 c6         1 A1B      -0.081400
     14 C9          15.6410     4.3370     4.8290 cd         1 A1B      -0.177100
     15 N1          15.3690     0.9030     2.0590 nu         1 A1B      -0.925100
     16 N2          15.2260     3.5330     5.8610 na         1 A1B      -0.312400
     17 N3          14.6020     1.2270     6.1100 nb         1 A1B      -0.225000
     18 N4          14.7110    -0.0050     4.0770 nb         1 A1B      -0.331000
     19 O2          13.7520    -1.8660     2.2570 oh         1 A1B      -0.683000
     20 H2          10.5000    -3.5480    -0.5910 ho         1 A1B       0.440000
     21 H1          11.4470    -2.3110     1.1140 h1         1 A1B       0.048700
     22 H4          13.0550    -3.8380     0.3690 hc         1 A1B       0.046200
     23 H3          12.9830    -3.2600    -1.2830 hc         1 A1B       0.046200
     24 H5          15.1330    -2.7190     0.1440 hc         1 A1B       0.042700
     25 H6          14.4800    -1.5090    -0.9390 hc         1 A1B       0.042700
     26 H7          16.1290    -1.0380     1.8350 h1         1 A1B       0.055700
     27 H8          15.8550    -0.1140     0.3690 h1         1 A1B       0.055700
     28 H10         15.9920     3.9800     2.7080 ha         1 A1B       0.202000
     29 H13         14.1460    -0.7560     5.8990 h5         1 A1B       0.048100
     30 H15         13.3910     0.7940     0.2900 hc         1 A1B       0.042700
     31 H14         12.4960     0.2450     1.6850 hc         1 A1B       0.042700
     32 H17         12.2210    -0.5410    -1.2260 hc         1 A1B       0.046200
     33 H16         10.9690    -0.1500    -0.0620 hc         1 A1B       0.046200
     34 H11         15.8650     5.3770     5.0020 h4         1 A1B       0.219000
     35 H9          15.6580     1.7240     1.5550 hn         1 A1B       0.499000
     36 H12         15.1060     3.8260     6.8180 hn         1 A1B       0.364000
     37 H18         13.9740    -1.3300     3.0440 ho         1 A1B       0.487000
@<TRIPOS>BOND
     1     1     2 1   
     2     1    20 1   
     3     2     3 1   
     4     2    13 1   
     5     2    21 1   
     6     3     4 1   
     7     3    22 1   
     8     3    23 1   
     9     4     5 1   
    10     4    24 1   
    11     4    25 1   
    12     5     6 1   
    13     5    12 1   
    14     5    19 1   
    15     6    15 1   
    16     6    26 1   
    17     6    27 1   
    18     7     8 ar  
    19     7    15 1   
    20     7    18 ar  
    21     8     9 1   
    22     8    10 ar  
    23     9    14 2   
    24     9    28 1   
    25    10    16 1   
    26    10    17 ar  
    27    11    17 ar  
    28    11    18 ar  
    29    11    29 1   
    30    12    13 1   
    31    12    30 1   
    32    12    31 1   
    33    13    32 1   
    34    13    33 1   
    35    14    16 1   
    36    14    34 1   
    37    15    35 1   
    38    16    36 1   
    39    19    37 1   
@<TRIPOS>SUBSTRUCTURE
     1 A1B         1 TEMP              0 ****  ****    0 ROOT
