@<TRIPOS>MOLECULE
A1B
   37    39     1     0     0
SMALL
abcg2


@<TRIPOS>ATOM
      1 N1           5.3830    26.6490   -23.8100 nv         1 A1B      -1.053900
      2 N3           7.4440    30.3050   -19.3410 nc         1 A1B      -0.702000
      3 C4           6.0550    34.3390   -20.9380 ca         1 A1B      -0.109000
      4 C5           6.7530    33.5020   -20.0780 ca         1 A1B      -0.094000
      5 C6           8.1100    33.2540   -20.2560 ca         1 A1B      -0.069300
      6 C8           8.0270    31.3290   -18.6470 cc         1 A1B       0.555300
      7 C10          6.0120    28.4100   -18.5220 c3         1 A1B      -0.044400
      8 C13          6.7760    26.7550   -21.8430 ca         1 A1B      -0.228000
      9 C15          4.7790    28.1740   -20.7000 ca         1 A1B       0.406900
     10 C14          5.5930    27.0810   -22.5340 ca         1 A1B       0.604900
     11 C12          6.9160    27.1780   -20.5430 ca         1 A1B      -0.010000
     12 N2           4.6180    27.7790   -21.9590 nb         1 A1B      -0.743000
     13 C11          5.8980    27.9130   -19.9310 ca         1 A1B      -0.197300
     14 C9           6.8350    29.6450   -18.4150 cd         1 A1B       0.480300
     15 O            7.0020    30.1860   -17.2140 os         1 A1B      -0.099700
     16 N            7.7880    31.2980   -17.3740 nd         1 A1B      -0.378300
     17 C1           8.7890    33.8730   -21.3150 ca         1 A1B      -0.069300
     18 C           10.2580    33.6550   -21.5370 c3         1 A1B      -0.049800
     19 C3           6.7190    34.9440   -21.9930 ca         1 A1B      -0.106000
     20 C2           8.0760    34.7100   -22.1700 ca         1 A1B      -0.109000
     21 H13          4.6600    27.1190   -24.3280 hn         1 A1B       0.472500
     22 H14          6.1880    26.3940   -24.3580 hn         1 A1B       0.472500
     23 H6           6.2220    33.0440   -19.2520 ha         1 A1B       0.113000
     24 H10          6.4520    27.6460   -17.8730 hc         1 A1B       0.077700
     25 H9           5.0210    28.6190   -18.1060 hc         1 A1B       0.077700
     26 H12          7.5540    26.1820   -22.3310 ha         1 A1B       0.122000
     27 H15          3.9540    28.7400   -20.2740 h4         1 A1B       0.014100
     28 H11          7.8200    26.9360   -19.9960 ha         1 A1B       0.116000
     29 H2          10.8480    33.9250   -20.6590 hc         1 A1B       0.041700
     30 H1          10.4840    32.6110   -21.7630 hc         1 A1B       0.041700
     31 H           10.6180    34.2540   -22.3730 hc         1 A1B       0.041700
     32 H4           6.1890    35.5970   -22.6740 ha         1 A1B       0.113000
     33 H3           8.5970    35.1880   -22.9910 ha         1 A1B       0.110000
     34 C7           8.8680    32.3730   -19.2890 c3         1 A1B      -0.060400
     35 H5           4.9990    34.5160   -20.7800 ha         1 A1B       0.114000
     36 H8           9.6840    31.8620   -19.8050 hc         1 A1B       0.074200
     37 H7           9.3330    32.9830   -18.5100 hc         1 A1B       0.074200
@<TRIPOS>BOND
     1     1    10 1   
     2     1    21 1   
     3     1    22 1   
     4     2     6 1   
     5     2    14 2   
     6     3     4 ar  
     7     3    19 ar  
     8     3    35 1   
     9     4     5 ar  
    10     4    23 1   
    11     5    17 ar  
    12     5    34 1   
    13     6    16 2   
    14     6    34 1   
    15     7    13 1   
    16     7    14 1   
    17     7    24 1   
    18     7    25 1   
    19     8    10 ar  
    20     8    11 ar  
    21     8    26 1   
    22     9    12 ar  
    23     9    13 ar  
    24     9    27 1   
    25    10    12 ar  
    26    11    13 ar  
    27    11    28 1   
    28    14    15 1   
    29    15    16 1   
    30    17    18 1   
    31    17    20 ar  
    32    18    29 1   
    33    18    30 1   
    34    18    31 1   
    35    19    20 ar  
    36    19    32 1   
    37    20    33 1   
    38    34    36 1   
    39    34    37 1   
@<TRIPOS>SUBSTRUCTURE
     1 A1B         1 TEMP              0 ****  ****    0 ROOT
