@<TRIPOS>MOLECULE
A1B
  101   106     1     0     0
SMALL
abcg2


@<TRIPOS>ATOM
      1 PA          -5.1260     3.4600     1.1080 p5         1 A1B       1.468800
      2 O1A         -4.4330     2.2980     1.7550 o          1 A1B      -0.852500
      3 O2A         -6.2380     4.1640     1.8190 o          1 A1B      -0.852500
      4 O5B         -5.6270     3.0270    -0.4030 os         1 A1B      -0.563400
      5 C5B         -6.5990     2.0180    -0.5260 c3         1 A1B       0.222600
      6 C4B         -6.3960     1.3190    -1.8570 c5         1 A1B       0.157300
      7 O4B         -5.0770     0.7680    -1.9440 os         1 A1B      -0.409000
      8 C3B         -7.3480     0.1480    -2.0560 c5         1 A1B       0.095300
      9 O3B         -7.5540    -0.0400    -3.4320 oh         1 A1B      -0.718000
     10 C2B         -6.5300    -1.0000    -1.4620 c5         1 A1B       0.066300
     11 O2B         -6.8640    -2.2710    -1.9390 oh         1 A1B      -0.700000
     12 C1B         -5.1180    -0.6260    -1.9200 c5         1 A1B       0.329300
     13 N9A         -4.0850    -1.1240    -1.0420 na         1 A1B      -0.303300
     14 C8A         -3.7230    -0.6300     0.1840 cc         1 A1B       0.428700
     15 N7A         -2.8450    -1.3750     0.7930 nd         1 A1B      -0.561100
     16 C5A         -2.6190    -2.4180    -0.0670 ca         1 A1B      -0.113600
     17 C6A         -1.8140    -3.5730     0.0250 ca         1 A1B       0.449900
     18 N6A         -1.0760    -3.8600     1.0900 nv         1 A1B      -1.063900
     19 N1A         -1.8190    -4.4160    -1.0220 nb         1 A1B      -0.289000
     20 C2A         -2.5820    -4.1380    -2.0740 ca         1 A1B       0.150900
     21 N3A         -3.3940    -3.1110    -2.2600 nb         1 A1B      -0.267000
     22 C4A         -3.3760    -2.2790    -1.2180 ca         1 A1B       0.112500
     23 N1           5.9450     1.9770    -1.5130 ns         1 A1B      -0.509600
     24 C2           6.4990     1.8490    -2.7650 c          1 A1B       0.630000
     25 O2           6.8070     2.8110    -3.4360 o          1 A1B      -0.583000
     26 N3           6.6860     0.5570    -3.1690 ns         1 A1B      -0.472500
     27 C4           6.3820    -0.6010    -2.4600 c          1 A1B       0.613600
     28 O4           6.6230    -1.6980    -2.9340 o          1 A1B      -0.537000
     29 C4X          5.7370    -0.3530    -1.2070 cc         1 A1B      -0.314600
     30 N5           5.2500    -1.4140    -0.4140 na         1 A1B       0.020100
     31 C5X          5.4570    -1.2200     0.9710 ca         1 A1B      -0.019000
     32 C6           5.7750    -2.2520     1.8390 ca         1 A1B      -0.090000
     33 C7           5.8750    -2.0380     3.2080 ca         1 A1B      -0.074300
     34 C7M          6.1780    -3.1790     4.1330 c3         1 A1B      -0.041800
     35 C8           5.6850    -0.7420     3.7040 ca         1 A1B      -0.077300
     36 C8M          5.7740    -0.4690     5.1760 c3         1 A1B      -0.039800
     37 C9           5.4310     0.3010     2.8210 ca         1 A1B      -0.124000
     38 C9A          5.3140     0.0790     1.4530 ca         1 A1B      -0.033000
     39 N10          5.1320     1.1340     0.5320 na         1 A1B      -0.099000
     40 C10          5.5690     0.9160    -0.7410 cd         1 A1B       0.195600
     41 C1           4.3100     2.2840     0.8820 c3         1 A1B       0.081600
     42 C11          2.8320     1.9900     0.6430 c3         1 A1B       0.126300
     43 O6           2.7240     1.5520    -0.6860 oh         1 A1B      -0.747000
     44 C3           1.9920     3.2470     0.9410 c3         1 A1B       0.089300
     45 O3           2.2670     3.7230     2.2390 oh         1 A1B      -0.664000
     46 C12          0.4810     3.0190     0.7560 c3         1 A1B       0.126300
     47 O7           0.1870     2.5230    -0.5390 oh         1 A1B      -0.699000
     48 C5          -0.3030     4.2900     1.0520 c3         1 A1B       0.215600
     49 O5          -1.6730     4.0290     0.8580 os         1 A1B      -0.568400
     50 P           -2.7580     5.1830     1.3170 p5         1 A1B       1.468800
     51 O1P         -2.4150     6.4740     0.6430 o          1 A1B      -0.857500
     52 O2P         -2.9690     5.1210     2.7970 o          1 A1B      -0.857500
     53 O3P         -4.0460     4.5500     0.5250 os         1 A1B      -0.689800
     54 C01          1.9680    -3.5110    -2.2120 c3         1 A1B      -0.129400
     55 C02          2.4380    -3.8870    -0.8320 ce         1 A1B       0.429600
     56 C04          3.5180    -3.1180    -0.2270 ce         1 A1B      -0.383600
     57 H2          -6.5410     1.2920     0.2940 h1         1 A1B       0.006700
     58 H3          -7.6110     2.4410    -0.5110 h1         1 A1B       0.006700
     59 H4          -6.5110     2.0500    -2.6640 h1         1 A1B       0.086700
     60 H5          -8.2960     0.2960    -1.5200 h1         1 A1B       0.039700
     61 H6          -7.8400    -0.9510    -3.5670 ho         1 A1B       0.500000
     62 H7          -6.5810    -0.9510    -0.3680 h1         1 A1B       0.070700
     63 H8          -7.5820    -2.6280    -1.4060 ho         1 A1B       0.492000
     64 H9          -4.9180    -1.0560    -2.9080 h2         1 A1B       0.093700
     65 H10         -4.1220     0.2980     0.5750 h5         1 A1B       0.136800
     66 H11         -0.5470    -4.7480     1.1580 hn         1 A1B       0.531500
     67 H12         -1.0950    -3.2410     1.8820 hn         1 A1B       0.531500
     68 H13         -2.5340    -4.8570    -2.8850 h5         1 A1B       0.011100
     69 H14          5.9180     2.9170    -1.1460 hn         1 A1B       0.459000
     70 H15          7.1080     0.4350    -4.0820 hn         1 A1B       0.332500
     71 H16          5.9260    -3.2490     1.4420 ha         1 A1B       0.137000
     72 H17          7.0970    -3.0060     4.6960 hc         1 A1B       0.040367
     73 H18          5.3820    -3.3210     4.8670 hc         1 A1B       0.040367
     74 H19          6.2930    -4.1130     3.5850 hc         1 A1B       0.040367
     75 H20          6.7610    -0.7180     5.5720 hc         1 A1B       0.036367
     76 H21          5.5800     0.5780     5.4010 hc         1 A1B       0.036367
     77 H22          5.0530    -1.0700     5.7350 hc         1 A1B       0.036367
     78 H23          5.3280     1.3000     3.2220 ha         1 A1B       0.112000
     79 H24          4.4910     2.5580     1.9170 h1         1 A1B       0.056200
     80 H25          4.6060     3.1550     0.2960 h1         1 A1B       0.056200
     81 H26          2.5170     1.1980     1.3450 h1         1 A1B       0.053700
     82 H27          1.7850     1.5720    -0.9220 ho         1 A1B       0.556000
     83 H28          2.3100     4.0420     0.2540 h1         1 A1B       0.064700
     84 H29          1.9880     3.0590     2.8810 ho         1 A1B       0.449000
     85 H30          0.1630     2.2310     1.4490 h1         1 A1B       0.097700
     86 H31          0.2570     3.2470    -1.1740 ho         1 A1B       0.501000
     87 H32         -0.0940     4.6150     2.0750 h1         1 A1B       0.013200
     88 H33          0.0420     5.0900     0.3820 h1         1 A1B       0.013200
     89 H35          2.7580    -3.6380    -2.9550 hc         1 A1B       0.040367
     90 H36          1.1280    -4.1390    -2.4990 hc         1 A1B       0.040367
     91 H37          1.6510    -2.4670    -2.2570 hc         1 A1B       0.040367
     92 H40          3.7460    -3.3190     0.8100 ha         1 A1B       0.178000
     93 H41          4.0240    -2.0050    -1.9460 h4         1 A1B       0.194000
     94 N            1.8440    -4.8660    -0.2650 n2         1 A1B      -0.517900
     95 CA           2.2760    -5.3120     1.0400 c3         1 A1B      -0.040200
     96 C            1.3910    -6.4410     1.5920 c          1 A1B       0.730000
     97 O            0.1490    -6.3050     1.4570 o          1 A1B      -0.727000
     98 OXT          1.9620    -7.3810     2.1680 o          1 A1B      -0.727000
     99 HA2          3.3190    -5.6480     1.0180 h1         1 A1B       0.025700
    100 HA3          2.2420    -4.4970     1.7800 h1         1 A1B       0.025700
    101 C05          4.2260    -2.1890    -0.8980 c2         1 A1B      -0.076100
@<TRIPOS>BOND
     1     1     2 1   
     2     1     3 1   
     3     1     4 1   
     4     1    53 1   
     5     4     5 1   
     6     5     6 1   
     7     5    57 1   
     8     5    58 1   
     9     6     7 1   
    10     6     8 1   
    11     6    59 1   
    12     7    12 1   
    13     8     9 1   
    14     8    10 1   
    15     8    60 1   
    16     9    61 1   
    17    10    11 1   
    18    10    12 1   
    19    10    62 1   
    20    11    63 1   
    21    12    13 1   
    22    12    64 1   
    23    13    14 1   
    24    13    22 1   
    25    14    15 2   
    26    14    65 1   
    27    15    16 1   
    28    16    17 ar  
    29    16    22 ar  
    30    17    18 1   
    31    17    19 ar  
    32    18    66 1   
    33    18    67 1   
    34    19    20 ar  
    35    20    21 ar  
    36    20    68 1   
    37    21    22 ar  
    38    23    24 1   
    39    23    40 1   
    40    23    69 1   
    41    24    25 2   
    42    24    26 1   
    43    26    27 1   
    44    26    70 1   
    45    27    28 2   
    46    27    29 1   
    47    29    30 1   
    48    29    40 2   
    49    30    31 1   
    50    30   101 1   
    51    31    32 ar  
    52    31    38 ar  
    53    32    33 ar  
    54    32    71 1   
    55    33    34 1   
    56    33    35 ar  
    57    34    72 1   
    58    34    73 1   
    59    34    74 1   
    60    35    36 1   
    61    35    37 ar  
    62    36    75 1   
    63    36    76 1   
    64    36    77 1   
    65    37    38 ar  
    66    37    78 1   
    67    38    39 1   
    68    39    40 1   
    69    39    41 1   
    70    41    42 1   
    71    41    79 1   
    72    41    80 1   
    73    42    43 1   
    74    42    44 1   
    75    42    81 1   
    76    43    82 1   
    77    44    45 1   
    78    44    46 1   
    79    44    83 1   
    80    45    84 1   
    81    46    47 1   
    82    46    48 1   
    83    46    85 1   
    84    47    86 1   
    85    48    49 1   
    86    48    87 1   
    87    48    88 1   
    88    49    50 1   
    89    50    51 1   
    90    50    52 1   
    91    50    53 1   
    92    54    55 1   
    93    54    89 1   
    94    54    90 1   
    95    54    91 1   
    96    55    56 1   
    97    55    94 2   
    98    56    92 1   
    99    56   101 2   
   100    93   101 1   
   101    94    95 1   
   102    95    96 1   
   103    95    99 1   
   104    95   100 1   
   105    96    97 1   
   106    96    98 1   
@<TRIPOS>SUBSTRUCTURE
     1 A1B         1 TEMP              0 ****  ****    0 ROOT
