@<TRIPOS>MOLECULE
A1B
   21    20     1     0     0
SMALL
abcg2


@<TRIPOS>ATOM
      1 C           20.1470    34.4380   -27.3140 c          1 A1B       0.590100
      2 C2          20.8950    35.7030   -25.3270 c3         1 A1B       0.092800
      3 N           17.7450    34.2970   -27.7140 n8         1 A1B      -0.980200
      4 CA          18.7540    34.3510   -26.6780 c3         1 A1B       0.097500
      5 O           20.3640    33.9670   -28.4200 o          1 A1B      -0.568100
      6 CB          18.7120    33.0610   -25.8550 c3         1 A1B       0.084600
      7 SG          17.1580    32.9090   -24.9020 sh         1 A1B      -0.474800
      8 N1          21.1270    35.0130   -26.5850 n          1 A1B      -0.419800
      9 C3          22.4470    35.0860   -27.1860 c3         1 A1B       0.092800
     10 H21         21.8560    35.9400   -24.8780 h1         1 A1B       0.040533
     11 H22         20.3510    36.6410   -25.4590 h1         1 A1B       0.040533
     12 H23         20.3560    35.0870   -24.6100 h1         1 A1B       0.040533
     13 H           16.8450    34.1680   -27.2670 hn         1 A1B       0.406500
     14 H2          17.6920    35.1900   -28.1880 hn         1 A1B       0.406500
     15 HA          18.6090    35.1970   -25.9940 h1         1 A1B       0.036700
     16 HB2         18.7940    32.2020   -26.5190 h1         1 A1B       0.081700
     17 HB3         19.5400    33.0160   -25.1480 h1         1 A1B       0.081700
     18 HG          16.6710    31.8180   -25.5010 hs         1 A1B       0.226800
     19 H31         23.1490    35.4800   -26.4570 h1         1 A1B       0.040533
     20 H32         22.7960    34.1010   -27.4930 h1         1 A1B       0.040533
     21 H33         22.4620    35.7380   -28.0620 h1         1 A1B       0.040533
@<TRIPOS>BOND
     1     1     4 1   
     2     1     5 2   
     3     1     8 1   
     4     2     8 1   
     5     2    10 1   
     6     2    11 1   
     7     2    12 1   
     8     3     4 1   
     9     3    13 1   
    10     3    14 1   
    11     4     6 1   
    12     4    15 1   
    13     6     7 1   
    14     6    16 1   
    15     6    17 1   
    16     7    18 1   
    17     8     9 1   
    18     9    19 1   
    19     9    20 1   
    20     9    21 1   
@<TRIPOS>SUBSTRUCTURE
     1 A1B         1 TEMP              0 ****  ****    0 ROOT
