@<TRIPOS>MOLECULE
A1B
   23    25     1     0     0
SMALL
abcg2


@<TRIPOS>ATOM
      1 N1         -27.2540   -27.4890   -41.5470 nb         1 A1B      -0.180000
      2 C4         -28.1650   -29.7450   -41.4270 c6         1 A1B      -0.170700
      3 C5         -27.9750   -28.3690   -40.8580 ca         1 A1B       0.125300
      4 C6         -27.0900   -26.2910   -41.0090 ca         1 A1B       0.119900
      5 C7         -28.2800   -26.7610   -39.1600 ca         1 A1B       0.113900
      6 C8         -28.5280   -28.0420   -39.6200 ca         1 A1B      -0.221300
      7 N          -28.8850   -30.4180   -39.1610 n7         1 A1B      -0.840400
      8 C          -30.5930   -30.0000   -40.7050 c5         1 A1B      -0.075400
      9 C1         -30.7670   -29.1190   -39.4510 c5         1 A1B      -0.068400
     10 C2         -29.3480   -29.0670   -38.8760 c5         1 A1B       0.212800
     11 C3         -29.1600   -30.5580   -40.5910 c5         1 A1B       0.154500
     12 N2         -27.5630   -25.8760   -39.8440 nb         1 A1B      -0.172000
     13 H8         -27.1910   -30.2460   -41.4500 hc         1 A1B       0.073200
     14 H7         -28.4930   -29.6700   -42.4670 hc         1 A1B       0.073200
     15 H9         -26.5050   -25.5780   -41.5810 h5         1 A1B       0.050100
     16 H10        -28.6730   -26.4380   -38.1990 h4         1 A1B       0.024100
     17 H11        -27.9000   -30.5370   -38.9500 hn         1 A1B       0.417000
     18 H          -31.3240   -30.8080   -40.7190 hc         1 A1B       0.050200
     19 H1         -30.7250   -29.4360   -41.6280 hc         1 A1B       0.050200
     20 H3         -31.1660   -28.1290   -39.6740 hc         1 A1B       0.054200
     21 H2         -31.4370   -29.5890   -38.7290 hc         1 A1B       0.054200
     22 H4         -29.3340   -28.8580   -37.8040 h1         1 A1B       0.079700
     23 H6         -29.1080   -31.6070   -40.8900 h1         1 A1B       0.076700
@<TRIPOS>BOND
     1     1     3 ar  
     2     1     4 ar  
     3     2     3 1   
     4     2    11 1   
     5     2    13 1   
     6     2    14 1   
     7     3     6 ar  
     8     4    12 ar  
     9     4    15 1   
    10     5     6 ar  
    11     5    12 ar  
    12     5    16 1   
    13     6    10 1   
    14     7    10 1   
    15     7    11 1   
    16     7    17 1   
    17     8     9 1   
    18     8    11 1   
    19     8    18 1   
    20     8    19 1   
    21     9    10 1   
    22     9    20 1   
    23     9    21 1   
    24    10    22 1   
    25    11    23 1   
@<TRIPOS>SUBSTRUCTURE
     1 A1B         1 TEMP              0 ****  ****    0 ROOT
