@<TRIPOS>MOLECULE
A1B
   26    26     1     0     0
SMALL
abcg2


@<TRIPOS>ATOM
      1 C4           6.5640   -39.1420   -22.0510 c5         1 A1B      -0.108900
      2 C5           6.2540   -39.3290   -20.5620 c5         1 A1B      -0.078900
      3 C6           5.1280   -38.3170   -20.2290 c5         1 A1B      -0.078900
      4 C7           4.8680   -37.5450   -21.5250 c5         1 A1B      -0.108900
      5 C            4.4780   -42.4250   -22.4500 c3         1 A1B      -0.181100
      6 O            5.0090   -42.5100   -24.7770 o          1 A1B      -0.608100
      7 C1           4.7100   -41.8180   -23.8130 c          1 A1B       0.604100
      8 C2           4.2040   -39.5200   -22.9200 c3         1 A1B       0.128000
      9 C3           5.3090   -38.4940   -22.6470 c5         1 A1B       0.155000
     10 O1           5.5320   -37.8500   -23.8810 oh         1 A1B      -0.652000
     11 H7           6.8450   -40.0690   -22.5540 hc         1 A1B       0.052700
     12 H8           7.4020   -38.4490   -22.1760 hc         1 A1B       0.052700
     13 H9           5.9240   -40.3480   -20.3570 hc         1 A1B       0.044450
     14 H10          7.1400   -39.1650   -19.9490 hc         1 A1B       0.044450
     15 H11          4.2270   -38.8410   -19.9060 hc         1 A1B       0.044450
     16 H12          5.4060   -37.6500   -19.4130 hc         1 A1B       0.044450
     17 H13          3.8320   -37.2160   -21.6320 hc         1 A1B       0.052700
     18 H14          5.4950   -36.6490   -21.5640 hc         1 A1B       0.052700
     19 H3           4.7170   -40.1150   -24.8600 hn         1 A1B       0.324500
     20 H2           4.6720   -43.4930   -22.4950 hc         1 A1B       0.058033
     21 H            5.1280   -41.9890   -21.6910 hc         1 A1B       0.058033
     22 H1           3.4490   -42.2750   -22.1190 hc         1 A1B       0.058033
     23 H5           3.3060   -38.9830   -23.2410 h1         1 A1B       0.053200
     24 H4           3.9340   -40.0380   -22.0010 h1         1 A1B       0.053200
     25 H6           6.2720   -37.2430   -23.7800 ho         1 A1B       0.446000
     26 N            4.5610   -40.4830   -23.9320 ns         1 A1B      -0.509900
@<TRIPOS>BOND
     1     1     2 1   
     2     1     9 1   
     3     1    11 1   
     4     1    12 1   
     5     2     3 1   
     6     2    13 1   
     7     2    14 1   
     8     3     4 1   
     9     3    15 1   
    10     3    16 1   
    11     4     9 1   
    12     4    17 1   
    13     4    18 1   
    14     5     7 1   
    15     5    20 1   
    16     5    21 1   
    17     5    22 1   
    18     6     7 2   
    19     7    26 1   
    20     8     9 1   
    21     8    23 1   
    22     8    24 1   
    23     8    26 1   
    24     9    10 1   
    25    10    25 1   
    26    19    26 1   
@<TRIPOS>SUBSTRUCTURE
     1 A1B         1 TEMP              0 ****  ****    0 ROOT
