@<TRIPOS>MOLECULE
A1B
   34    33     1     0     0
SMALL
abcg2


@<TRIPOS>ATOM
      1 C10         -3.2800    -0.6890    -0.0030 c          1 A1B       0.548100
      2 C13         -4.7450     1.1650     0.7130 c3         1 A1B       0.171600
      3 CG           1.6760    -0.6480     0.1130 c3         1 A1B      -0.069400
      4 CE          -0.8340    -0.8850     0.0080 c3         1 A1B       0.096000
      5 CD           0.3590     0.0140    -0.2680 c3         1 A1B      -0.096400
      6 CB           2.8710     0.2620    -0.1350 c3         1 A1B      -0.051400
      7 CA           4.2290    -0.3660     0.1900 c3         1 A1B       0.012500
      8 C            5.3500     0.6250    -0.2220 c          1 A1B       0.693000
      9 C12         -4.4700     0.1820    -0.4220 c3         1 A1B       0.084500
     10 N            4.2620    -0.7990     1.5790 n8         1 A1B      -1.000200
     11 NZ          -2.0730    -0.2260    -0.3530 ns         1 A1B      -0.494900
     12 N14         -5.6570    -0.5810    -0.7400 n8         1 A1B      -0.973200
     13 O            5.9730     1.1960     0.6950 o          1 A1B      -0.734000
     14 O11         -3.4390    -1.7180     0.6400 o          1 A1B      -0.621100
     15 O15         -5.7010     2.1030     0.2860 oh         1 A1B      -0.647000
     16 H1          -5.0910     0.6000     1.5890 h1         1 A1B       0.026700
     17 H3          -3.8030     1.6510     0.9970 h1         1 A1B       0.026700
     18 HG2          1.6470    -0.9430     1.1640 hc         1 A1B       0.041200
     19 HG3          1.7990    -1.5730    -0.4620 hc         1 A1B       0.041200
     20 HE2         -0.7290    -1.8230    -0.5470 h1         1 A1B       0.050700
     21 HE3         -0.8600    -1.1470     1.0680 h1         1 A1B       0.050700
     22 HD2          0.2430     0.9490     0.2890 hc         1 A1B       0.037200
     23 HD3          0.3770     0.2840    -1.3290 hc         1 A1B       0.037200
     24 HB2          2.8770     0.5750    -1.1820 hc         1 A1B       0.037200
     25 HB3          2.7530     1.1800     0.4560 hc         1 A1B       0.037200
     26 HA           4.3320    -1.2620    -0.4350 h1         1 A1B       0.037700
     27 H13         -4.1880     0.7600    -1.3080 h1         1 A1B       0.072700
     28 H            5.1440    -1.2680     1.7500 hn         1 A1B       0.381000
     29 H2           4.3090     0.0330     2.1590 hn         1 A1B       0.381000
     30 HZ1         -2.0170     0.6020    -0.9250 hn         1 A1B       0.314500
     31 H18         -5.4870    -1.1530    -1.5580 hn         1 A1B       0.403000
     32 H19         -5.8520    -1.2280     0.0160 hn         1 A1B       0.403000
     33 H21         -5.8760     2.7040     1.0160 ho         1 A1B       0.438000
     34 OXT          5.5120     0.7870    -1.4500 o          1 A1B      -0.734000
@<TRIPOS>BOND
     1     1     9 1   
     2     1    11 1   
     3     1    14 2   
     4     2     9 1   
     5     2    15 1   
     6     2    16 1   
     7     2    17 1   
     8     3     5 1   
     9     3     6 1   
    10     3    18 1   
    11     3    19 1   
    12     4     5 1   
    13     4    11 1   
    14     4    20 1   
    15     4    21 1   
    16     5    22 1   
    17     5    23 1   
    18     6     7 1   
    19     6    24 1   
    20     6    25 1   
    21     7     8 1   
    22     7    10 1   
    23     7    26 1   
    24     8    13 1   
    25     8    34 1   
    26     9    12 1   
    27     9    27 1   
    28    10    28 1   
    29    10    29 1   
    30    11    30 1   
    31    12    31 1   
    32    12    32 1   
    33    15    33 1   
@<TRIPOS>SUBSTRUCTURE
     1 A1B         1 TEMP              0 ****  ****    0 ROOT
