@<TRIPOS>MOLECULE
A1B
   26    27     1     0     0
SMALL
abcg2


@<TRIPOS>ATOM
      1 N1         -42.3940   -15.9440   -40.9250 n          1 A1B      -0.066500
      2 N3         -43.3300   -15.0200   -39.1760 nc         1 A1B      -0.741000
      3 C4         -41.7770   -13.5860   -42.0950 cc         1 A1B       0.197800
      4 C5         -41.4500   -14.7500   -42.7170 cd         1 A1B      -0.402200
      5 C6         -41.7410   -16.0470   -42.1630 c          1 A1B       0.567000
      6 C7         -43.3540   -16.3810   -39.1330 cc         1 A1B       0.561300
      7 C8         -43.9620   -17.1240   -38.0030 c3         1 A1B      -0.116400
      8 C1         -40.4600   -11.4790   -41.7990 c3         1 A1B      -0.092100
      9 C2         -41.4600   -12.2360   -42.6750 c3         1 A1B      -0.039500
     10 C3         -42.7260   -11.4160   -42.9250 c3         1 A1B      -0.092100
     11 C9         -42.7240   -14.7860   -40.3080 cd         1 A1B       0.664400
     12 N2         -42.8030   -16.9780   -40.1610 nd         1 A1B      -0.492800
     13 N4         -42.4110   -13.6100   -40.8900 na         1 A1B      -0.759900
     14 O1         -41.4850   -17.1280   -42.6470 o          1 A1B      -0.466000
     15 H8         -40.9490   -14.7170   -43.6730 ha         1 A1B       0.223000
     16 H10        -43.8770   -18.1970   -38.1530 hc         1 A1B       0.058033
     17 H11        -43.4730   -16.8630   -37.0650 hc         1 A1B       0.058033
     18 H9         -45.0170   -16.8690   -37.9020 hc         1 A1B       0.058033
     19 H3         -39.5510   -12.0590   -41.6370 hc         1 A1B       0.045200
     20 H1         -40.1800   -10.5470   -42.2900 hc         1 A1B       0.045200
     21 H2         -40.8780   -11.2230   -40.8240 hc         1 A1B       0.045200
     22 H4         -40.9860   -12.4270   -43.6400 hc         1 A1B       0.075700
     23 H5         -43.4320   -11.9530   -43.5570 hc         1 A1B       0.045200
     24 H7         -43.2350   -11.1450   -41.9980 hc         1 A1B       0.045200
     25 H6         -42.4610   -10.4890   -43.4320 hc         1 A1B       0.045200
     26 H12        -42.6630   -12.7590   -40.4080 hn         1 A1B       0.536000
@<TRIPOS>BOND
     1     1     5 1   
     2     1    11 1   
     3     1    12 1   
     4     2     6 1   
     5     2    11 2   
     6     3     4 2   
     7     3     9 1   
     8     3    13 1   
     9     4     5 1   
    10     4    15 1   
    11     5    14 2   
    12     6     7 1   
    13     6    12 2   
    14     7    16 1   
    15     7    17 1   
    16     7    18 1   
    17     8     9 1   
    18     8    19 1   
    19     8    20 1   
    20     8    21 1   
    21     9    10 1   
    22     9    22 1   
    23    10    23 1   
    24    10    24 1   
    25    10    25 1   
    26    11    13 1   
    27    13    26 1   
@<TRIPOS>SUBSTRUCTURE
     1 A1B         1 TEMP              0 ****  ****    0 ROOT
