@<TRIPOS>MOLECULE
A1B
   27    28     1     0     0
SMALL
abcg2


@<TRIPOS>ATOM
      1 N1         -33.5550     5.6670   -18.5220 nu         1 A1B      -0.926100
      2 C4         -34.9190     5.9760   -18.8320 cy         1 A1B       0.223500
      3 C5         -35.2110     7.3410   -19.4800 cy         1 A1B      -0.139900
      4 C6         -33.1380     5.0670   -17.3820 ca         1 A1B       0.614900
      5 C7         -33.6040     4.1380   -15.3320 ca         1 A1B       0.380900
      6 C8         -32.2840     3.8580   -15.0530 ca         1 A1B      -0.207000
      7 C10        -31.7670     4.8120   -17.1630 ca         1 A1B       0.033000
      8 C1         -37.6700     6.7230   -19.7000 c3         1 A1B      -0.074100
      9 C2         -36.2940     6.6430   -20.3350 cy         1 A1B       0.172000
     10 C3         -35.5830     5.3000   -20.0490 cy         1 A1B      -0.139900
     11 C9         -31.3340     4.2140   -16.0160 ca         1 A1B      -0.067000
     12 F1         -30.8870     5.1810   -18.1140 f          1 A1B      -0.184000
     13 N2         -34.0220     4.7190   -16.4550 nb         1 A1B      -0.745000
     14 O1         -36.4340     7.0410   -21.6720 oh         1 A1B      -0.636000
     15 H10        -32.8670     5.8750   -19.2270 hn         1 A1B       0.497000
     16 H7         -35.5070     5.8270   -17.9300 h1         1 A1B       0.099700
     17 H8         -35.5110     8.1690   -18.8340 hc         1 A1B       0.059950
     18 H9         -34.3670     7.6630   -20.0970 hc         1 A1B       0.059950
     19 H11        -34.3790     3.8820   -14.6170 h4         1 A1B       0.020100
     20 H12        -31.9940     3.3810   -14.1290 ha         1 A1B       0.129000
     21 H3         -37.6400     6.4320   -18.6500 hc         1 A1B       0.046033
     22 H2         -38.0610     7.7410   -19.7480 hc         1 A1B       0.046033
     23 H1         -38.3740     6.0600   -20.2070 hc         1 A1B       0.046033
     24 H5         -36.1940     4.4120   -19.8820 hc         1 A1B       0.059950
     25 H6         -34.8350     5.0820   -20.8170 hc         1 A1B       0.059950
     26 H13        -30.2790     4.0270   -15.8670 ha         1 A1B       0.133000
     27 H4         -35.5730     6.9840   -22.0990 ho         1 A1B       0.441000
@<TRIPOS>BOND
     1     1     2 1   
     2     1     4 1   
     3     1    15 1   
     4     2     3 1   
     5     2    10 1   
     6     2    16 1   
     7     3     9 1   
     8     3    17 1   
     9     3    18 1   
    10     4     7 ar  
    11     4    13 ar  
    12     5     6 ar  
    13     5    13 ar  
    14     5    19 1   
    15     6    11 ar  
    16     6    20 1   
    17     7    11 ar  
    18     7    12 1   
    19     8     9 1   
    20     8    21 1   
    21     8    22 1   
    22     8    23 1   
    23     9    10 1   
    24     9    14 1   
    25    10    24 1   
    26    10    25 1   
    27    11    26 1   
    28    14    27 1   
@<TRIPOS>SUBSTRUCTURE
     1 A1B         1 TEMP              0 ****  ****    0 ROOT
