@<TRIPOS>MOLECULE
A1B
   34    35     1     0     0
SMALL
abcg2


@<TRIPOS>ATOM
      1 N1         -42.6820   -19.7290   -16.5270 n7         1 A1B      -0.871400
      2 N3         -37.4500   -14.3960   -18.3360 nb         1 A1B      -0.700000
      3 C4         -42.9580   -17.6150   -17.7040 c6         1 A1B      -0.084900
      4 C5         -41.7380   -16.9220   -17.1110 c6         1 A1B       0.226300
      5 C6         -40.3020   -18.6620   -18.0310 c6         1 A1B       0.226300
      6 C7         -41.5010   -19.3570   -18.6550 c6         1 A1B      -0.084900
      7 C8         -39.5260   -16.3270   -17.9920 ca         1 A1B       0.379000
      8 C10        -37.3920   -15.6120   -18.8740 ca         1 A1B       0.365400
      9 C1         -42.8050   -21.7140   -15.1020 c3         1 A1B      -0.094100
     10 C11        -38.5420   -14.1500   -17.6180 ca         1 A1B       0.365400
     11 C12        -39.5750   -15.0430   -17.4100 ca         1 A1B      -0.250500
     12 C2         -42.7850   -21.1770   -16.5220 c3         1 A1B       0.160800
     13 C3         -42.7730   -19.1210   -17.8450 c6         1 A1B       0.176500
     14 C9         -38.3580   -16.5870   -18.7400 ca         1 A1B      -0.250500
     15 N2         -40.5360   -17.2340   -17.8670 nh         1 A1B      -0.814400
     16 H6         -43.4270   -19.3550   -15.9500 hn         1 A1B       0.409000
     17 H9         -43.1630   -17.1910   -18.6900 hc         1 A1B       0.049700
     18 H8         -43.8250   -17.3910   -17.0770 hc         1 A1B       0.049700
     19 H10        -41.9230   -15.8510   -17.1400 h1         1 A1B       0.048700
     20 H11        -41.6110   -17.2010   -16.0580 h1         1 A1B       0.048700
     21 H13        -39.4350   -18.8350   -18.6590 h1         1 A1B       0.048700
     22 H12        -40.0830   -19.1100   -17.0540 h1         1 A1B       0.048700
     23 H15        -41.6540   -18.9780   -19.6690 hc         1 A1B       0.049700
     24 H14        -41.2800   -20.4210   -18.7530 hc         1 A1B       0.049700
     25 H17        -36.5090   -15.8360   -19.4650 h4         1 A1B       0.009600
     26 H3         -42.8650   -22.8020   -15.1000 hc         1 A1B       0.038033
     27 H2         -41.9030   -21.4240   -14.5620 hc         1 A1B       0.038033
     28 H1         -43.6650   -21.3340   -14.5480 hc         1 A1B       0.038033
     29 H18        -38.6050   -13.1690   -17.1580 h4         1 A1B       0.009600
     30 H19        -40.3950   -14.7250   -16.7850 ha         1 A1B       0.117000
     31 H5         -41.9250   -21.5970   -17.0480 h1         1 A1B       0.027700
     32 H4         -43.6770   -21.5320   -17.0630 h1         1 A1B       0.027700
     33 H7         -43.6270   -19.5250   -18.4140 h1         1 A1B       0.024700
     34 H16        -38.1930   -17.5290   -19.2410 ha         1 A1B       0.117000
@<TRIPOS>BOND
     1     1    12 1   
     2     1    13 1   
     3     1    16 1   
     4     2     8 ar  
     5     2    10 ar  
     6     3     4 1   
     7     3    13 1   
     8     3    17 1   
     9     3    18 1   
    10     4    15 1   
    11     4    19 1   
    12     4    20 1   
    13     5     6 1   
    14     5    15 1   
    15     5    21 1   
    16     5    22 1   
    17     6    13 1   
    18     6    23 1   
    19     6    24 1   
    20     7    11 ar  
    21     7    14 ar  
    22     7    15 1   
    23     8    14 ar  
    24     8    25 1   
    25     9    12 1   
    26     9    26 1   
    27     9    27 1   
    28     9    28 1   
    29    10    11 ar  
    30    10    29 1   
    31    11    30 1   
    32    12    31 1   
    33    12    32 1   
    34    13    33 1   
    35    14    34 1   
@<TRIPOS>SUBSTRUCTURE
     1 A1B         1 TEMP              0 ****  ****    0 ROOT
