@<TRIPOS>MOLECULE
A1B
   20    21     1     0     0
SMALL
abcg2


@<TRIPOS>ATOM
      1 N1         -47.1220    -5.6570   -28.6330 nc         1 A1B      -0.520100
      2 N3         -42.6340    -5.6890   -28.9920 nb         1 A1B      -0.427000
      3 C4         -44.9820    -5.8040   -29.1390 ca         1 A1B      -0.090200
      4 C5         -43.6950    -5.9830   -29.6870 ca         1 A1B       0.553300
      5 C6         -43.8680    -5.0140   -27.1750 ca         1 A1B       0.329900
      6 C7         -45.0680    -5.3030   -27.8460 ca         1 A1B      -0.250900
      7 C2         -46.4600    -5.2320   -27.5810 cd         1 A1B       0.375900
      8 N2         -46.2390    -6.0050   -29.5740 na         1 A1B       0.125600
      9 N4         -42.7090    -5.2080   -27.7420 nb         1 A1B      -0.310000
     10 O1         -43.5680    -6.4540   -30.9220 oh         1 A1B      -0.650300
     11 H8         -43.8540    -4.6210   -26.1660 h4         1 A1B       0.034100
     12 H3         -48.2210    -4.8410   -26.4460 hc         1 A1B       0.054367
     13 H2         -46.8360    -5.3570   -25.4820 hc         1 A1B       0.054367
     14 H1         -46.8910    -3.7250   -26.1300 hc         1 A1B       0.054367
     15 H6         -47.7710    -6.5690   -30.8220 h1         1 A1B       0.064367
     16 H4         -46.3960    -5.8340   -31.6590 h1         1 A1B       0.064367
     17 H5         -46.2800    -7.4960   -31.0450 h1         1 A1B       0.064367
     18 H7         -42.6270    -6.5160   -31.1440 ho         1 A1B       0.497000
     19 C1         -47.1410    -4.7640   -26.3450 c3         1 A1B      -0.102400
     20 C3         -46.6880    -6.5060   -30.8540 c3         1 A1B       0.079900
@<TRIPOS>BOND
     1     1     7 2   
     2     1     8 1   
     3     2     4 ar  
     4     2     9 ar  
     5     3     4 ar  
     6     3     6 ar  
     7     3     8 1   
     8     4    10 1   
     9     5     6 ar  
    10     5     9 ar  
    11     5    11 1   
    12     6     7 1   
    13     7    19 1   
    14     8    20 1   
    15    10    18 1   
    16    12    19 1   
    17    13    19 1   
    18    14    19 1   
    19    15    20 1   
    20    16    20 1   
    21    17    20 1   
@<TRIPOS>SUBSTRUCTURE
     1 A1B         1 TEMP              0 ****  ****    0 ROOT
