@<TRIPOS>MOLECULE
A1B
   39    41     1     0     0
SMALL
abcg2


@<TRIPOS>ATOM
      1 N1          -8.6430     4.3210    -9.1290 nb         1 A1B      -0.671000
      2 N3          -7.1550     4.9580   -17.6400 na         1 A1B       0.034000
      3 C4          -8.6080     3.2210    -9.8720 ca         1 A1B       0.340900
      4 C5          -8.5390     3.2460   -11.2530 ca         1 A1B      -0.200000
      5 C6          -8.5100     4.4730   -11.9090 ca         1 A1B       0.000000
      6 C7          -7.4530     5.0750   -14.0250 c          1 A1B       0.652700
      7 C8          -7.6000     4.9660   -15.4760 cc         1 A1B      -0.244600
      8 C10         -8.5010     4.7000   -17.5210 cd         1 A1B      -0.141300
      9 C13         -9.4620     3.1290   -19.3290 cx         1 A1B      -0.119900
     10 C15         -6.5920     5.1290   -16.4160 cd         1 A1B      -0.071300
     11 C2          -8.5760     5.6440   -11.1490 ca         1 A1B      -0.112300
     12 C3          -8.6310     5.4830    -9.7670 ca         1 A1B       0.339900
     13 N2          -8.4730     4.4950   -13.3090 ns         1 A1B      -0.162000
     14 O1          -6.5200     5.6280   -13.4640 o          1 A1B      -0.591100
     15 C9          -8.8040     4.6950   -16.1900 cc         1 A1B      -0.140000
     16 C11         -9.3490     4.4970   -18.7060 cx         1 A1B      -0.071400
     17 C12        -10.6170     3.7140   -18.5830 cx         1 A1B      -0.119900
     18 C16         -5.1370     5.3940   -16.2530 c3         1 A1B      -0.042800
     19 H5          -8.6270     2.2720    -9.3470 h4         1 A1B       0.017100
     20 H6          -8.4980     2.3210   -11.8150 ha         1 A1B       0.120000
     21 H13         -8.9140     2.3200   -18.8620 hc         1 A1B       0.074950
     22 H12         -9.5200     3.0710   -20.4080 hc         1 A1B       0.074950
     23 H1          -7.6590     7.4000   -11.9920 hc         1 A1B       0.049367
     24 H3          -9.2350     7.0170   -12.6650 hc         1 A1B       0.049367
     25 H2          -9.1110     7.7100   -11.0480 hc         1 A1B       0.049367
     26 H4          -8.6870     6.3710    -9.1430 h4         1 A1B       0.016100
     27 H7          -9.0130     3.7810   -13.7750 hn         1 A1B       0.153000
     28 H8          -9.7920     4.5510   -15.7790 ha         1 A1B       0.135000
     29 H9          -9.3710     5.3280   -19.4070 hc         1 A1B       0.084700
     30 H11        -10.8660     3.2930   -17.6170 hc         1 A1B       0.074950
     31 H10        -11.4730     4.0580   -19.1510 hc         1 A1B       0.074950
     32 H16         -5.4180     5.2340   -18.7600 h1         1 A1B       0.054367
     33 H14         -6.5700     4.0930   -19.4550 h1         1 A1B       0.054367
     34 H15         -6.8890     5.8310   -19.5250 h1         1 A1B       0.054367
     35 H19         -4.8480     6.3440   -16.7060 hc         1 A1B       0.059033
     36 H17         -4.8750     5.4370   -15.2020 hc         1 A1B       0.059033
     37 H18         -4.5310     4.6140   -16.7200 hc         1 A1B       0.059033
     38 C1          -8.6480     7.0140   -11.7460 c3         1 A1B      -0.041800
     39 C14         -6.4730     5.0320   -18.9120 c3         1 A1B       0.049900
@<TRIPOS>BOND
     1     1     3 ar  
     2     1    12 ar  
     3     2     8 1   
     4     2    10 1   
     5     2    39 1   
     6     3     4 ar  
     7     3    19 1   
     8     4     5 ar  
     9     4    20 1   
    10     5    11 ar  
    11     5    13 1   
    12     6     7 1   
    13     6    13 1   
    14     6    14 2   
    15     7    10 2   
    16     7    15 1   
    17     8    15 2   
    18     8    16 1   
    19     9    16 1   
    20     9    17 1   
    21     9    21 1   
    22     9    22 1   
    23    10    18 1   
    24    11    12 ar  
    25    11    38 1   
    26    12    26 1   
    27    13    27 1   
    28    15    28 1   
    29    16    17 1   
    30    16    29 1   
    31    17    30 1   
    32    17    31 1   
    33    18    35 1   
    34    18    36 1   
    35    18    37 1   
    36    23    38 1   
    37    24    38 1   
    38    25    38 1   
    39    32    39 1   
    40    33    39 1   
    41    34    39 1   
@<TRIPOS>SUBSTRUCTURE
     1 A1B         1 TEMP              0 ****  ****    0 ROOT
