@<TRIPOS>MOLECULE
A1B
   39    41     1     0     0
SMALL
abcg2


@<TRIPOS>ATOM
      1 N1          -8.6660     4.7130   -14.1370 ns         1 A1B      -0.370100
      2 N3          -8.4920     5.4730   -10.6760 na         1 A1B       0.132800
      3 C4          -6.6140     6.4540   -17.1050 cp         1 A1B       0.030000
      4 C5          -7.8800     5.7620   -17.4290 cp         1 A1B       0.003000
      5 C6          -8.1620     5.4760   -18.7620 ca         1 A1B      -0.102000
      6 C7          -9.3110     4.7850   -19.1180 ca         1 A1B      -0.093000
      7 C8         -10.1970     4.3650   -18.1380 ca         1 A1B      -0.109000
      8 C10         -8.7810     5.3430   -16.4440 ca         1 A1B      -0.133600
      9 C13         -8.6610     3.7380   -11.8580 cc         1 A1B       0.205900
     10 C15         -8.4930     5.9350   -11.9440 cd         1 A1B      -0.175000
     11 C17         -5.0770     8.2480   -17.4300 ca         1 A1B       0.377900
     12 C1          -2.4280     6.7030   -14.8680 c3         1 A1B       0.160900
     13 C2          -4.5080     6.5940   -15.9870 ca         1 A1B       0.588300
     14 C3          -5.7060     5.9070   -16.2200 ca         1 A1B      -0.170000
     15 C9          -9.9290     4.6440   -16.8060 ca         1 A1B      -0.092000
     16 C11         -8.5960     5.7390   -15.0110 c          1 A1B       0.613700
     17 O2          -8.4260     6.8990   -14.6770 o          1 A1B      -0.576100
     18 C12         -8.6060     4.8210   -12.7520 cc         1 A1B      -0.068400
     19 N2          -8.5910     4.1550   -10.6080 nd         1 A1B      -0.510800
     20 C16         -6.2850     7.6600   -17.7350 ca         1 A1B      -0.188000
     21 N4          -4.1980     7.7320   -16.5710 nb         1 A1B      -0.754000
     22 H9          -8.7510     3.7780   -14.5080 hn         1 A1B       0.326500
     23 H5          -7.4620     5.7820   -19.5290 ha         1 A1B       0.123000
     24 H6          -9.5080     4.5720   -20.1600 ha         1 A1B       0.119000
     25 H7         -11.0980     3.8290   -18.4070 ha         1 A1B       0.119000
     26 H10         -8.7510     2.6870   -12.0910 h4         1 A1B       0.036100
     27 H14         -8.4180     6.9840   -12.1630 h4         1 A1B       0.180000
     28 H16         -4.7950     9.1860   -17.8950 h4         1 A1B       0.018100
     29 H1          -1.9020     6.0860   -14.1450 h1         1 A1B       0.045367
     30 H2          -1.8190     6.7990   -15.7680 h1         1 A1B       0.045367
     31 H3          -2.5860     7.6970   -14.4460 h1         1 A1B       0.045367
     32 H4          -5.8990     4.9650   -15.7220 ha         1 A1B       0.137000
     33 H8         -10.6370     4.3380   -16.0460 ha         1 A1B       0.120000
     34 H11         -8.4490     5.6010    -8.6200 h1         1 A1B       0.058033
     35 H13         -7.4360     6.7970    -9.4440 h1         1 A1B       0.058033
     36 H12         -9.1980     6.9910    -9.4210 h1         1 A1B       0.058033
     37 H15         -6.9620     8.1310   -18.4340 ha         1 A1B       0.128000
     38 C14         -8.3860     6.2680    -9.4750 c3         1 A1B       0.070900
     39 O1          -3.6540     6.0370   -15.1270 os         1 A1B      -0.461300
@<TRIPOS>BOND
     1     1    16 1   
     2     1    18 1   
     3     1    22 1   
     4     2    10 1   
     5     2    19 1   
     6     2    38 1   
     7     3     4 1   
     8     3    14 ar  
     9     3    20 ar  
    10     4     5 ar  
    11     4     8 ar  
    12     5     6 ar  
    13     5    23 1   
    14     6     7 ar  
    15     6    24 1   
    16     7    15 ar  
    17     7    25 1   
    18     8    15 ar  
    19     8    16 1   
    20     9    18 1   
    21     9    19 2   
    22     9    26 1   
    23    10    18 2   
    24    10    27 1   
    25    11    20 ar  
    26    11    21 ar  
    27    11    28 1   
    28    12    29 1   
    29    12    30 1   
    30    12    31 1   
    31    12    39 1   
    32    13    14 ar  
    33    13    21 ar  
    34    13    39 1   
    35    14    32 1   
    36    15    33 1   
    37    16    17 2   
    38    20    37 1   
    39    34    38 1   
    40    35    38 1   
    41    36    38 1   
@<TRIPOS>SUBSTRUCTURE
     1 A1B         1 TEMP              0 ****  ****    0 ROOT
