@<TRIPOS>MOLECULE
A1B
   30    31     1     0     0
SMALL
abcg2


@<TRIPOS>ATOM
      1 N1          -7.4400     6.1420   -16.4500 nc         1 A1B      -0.627000
      2 C4          -6.8990     5.9820   -18.8780 c6         1 A1B      -0.126000
      3 C5          -7.1420     7.2740   -19.6710 c6         1 A1B      -0.075400
      4 C6          -6.1880     7.3610   -20.8570 c6         1 A1B      -0.113400
      5 C7          -4.7430     7.1940   -20.3980 c6         1 A1B       0.147800
      6 C8          -5.4190     5.8910   -18.4840 c6         1 A1B       0.161800
      7 F2          -8.0880     7.3430   -13.8640 f          1 A1B      -0.111333
      8 F           -7.7520     5.2370   -13.6450 f          1 A1B      -0.111333
      9 F1          -9.7700     6.0000   -13.7150 f          1 A1B      -0.111333
     10 C2          -8.5680     5.9780   -15.7080 cc         1 A1B       0.118300
     11 C1          -9.6210     5.6260   -16.4970 cd         1 A1B      -0.157000
     12 C3          -7.7930     5.8940   -17.6870 cd         1 A1B       0.417800
     13 N           -9.1130     5.5710   -17.7590 na         1 A1B      -0.155500
     14 C           -9.8790     5.2580   -18.9480 c3         1 A1B       0.053900
     15 N2          -4.5150     5.9910   -19.6140 n7         1 A1B      -0.843400
     16 H4          -7.1130     5.1330   -19.5410 hc         1 A1B       0.047700
     17 H5          -8.1780     7.3300   -20.0140 hc         1 A1B       0.048200
     18 H6          -6.9840     8.1290   -19.0050 hc         1 A1B       0.048200
     19 H7          -6.4320     6.5760   -21.5810 hc         1 A1B       0.043700
     20 H8          -6.3120     8.3160   -21.3720 hc         1 A1B       0.043700
     21 H9          -4.0680     7.1820   -21.2570 h1         1 A1B       0.055700
     22 H10         -4.4550     8.0570   -19.7880 h1         1 A1B       0.055700
     23 H12         -5.2250     4.9520   -17.9620 h1         1 A1B       0.072700
     24 H13         -5.1830     6.6960   -17.7820 h1         1 A1B       0.072700
     25 H3         -10.6530     5.4050   -16.2840 h4         1 A1B       0.172000
     26 H1          -9.2620     4.7130   -19.6570 h1         1 A1B       0.058367
     27 H          -10.7230     4.6310   -18.6730 h1         1 A1B       0.058367
     28 H2         -10.2510     6.1630   -19.4240 h1         1 A1B       0.058367
     29 H11         -4.6390     5.1800   -20.2100 hn         1 A1B       0.400000
     30 C9          -8.5470     6.1410   -14.2410 c3         1 A1B       0.299700
@<TRIPOS>BOND
     1     1    10 1   
     2     1    12 2   
     3     2     3 1   
     4     2     6 1   
     5     2    12 1   
     6     2    16 1   
     7     3     4 1   
     8     3    17 1   
     9     3    18 1   
    10     4     5 1   
    11     4    19 1   
    12     4    20 1   
    13     5    15 1   
    14     5    21 1   
    15     5    22 1   
    16     6    15 1   
    17     6    23 1   
    18     6    24 1   
    19     7    30 1   
    20     8    30 1   
    21     9    30 1   
    22    10    11 2   
    23    10    30 1   
    24    11    13 1   
    25    11    25 1   
    26    12    13 1   
    27    13    14 1   
    28    14    26 1   
    29    14    27 1   
    30    14    28 1   
    31    15    29 1   
@<TRIPOS>SUBSTRUCTURE
     1 A1B         1 TEMP              0 ****  ****    0 ROOT
