@<TRIPOS>MOLECULE
A1B
   40    41     1     0     0
SMALL
abcg2


@<TRIPOS>ATOM
      1 C13          4.8010    -1.3180    60.7970 ca         1 A1B      -0.053000
      2 C15          4.5410     0.4580    59.2320 ca         1 A1B       0.338900
      3 C17          5.0120    -1.6290    58.4530 ca         1 A1B       0.347900
      4 C20          2.7660    -4.8250    57.3420 c3         1 A1B      -0.345100
      5 C22          6.6190    -4.4070    56.4150 ca         1 A1B      -0.105500
      6 C05          8.9230    -3.7970    56.0710 ca         1 A1B      -0.146600
      7 C06          9.2410    -4.3460    57.3080 ca         1 A1B      -0.069500
      8 C07          8.2500    -4.9230    58.0920 ca         1 A1B      -0.105500
      9 C08          6.9310    -4.9540    57.6590 ca         1 A1B      -0.076300
     10 C09          5.8480    -5.5640    58.5070 c3         1 A1B       0.256100
     11 C12          5.0440    -2.1750    59.7330 ca         1 A1B      -0.138300
     12 C14          4.5460     0.0210    60.5470 ca         1 A1B      -0.159000
     13 C23          7.6030    -3.8460    55.6240 ca         1 A1B      -0.069500
     14 N03         10.9090    -2.5090    55.7980 ns         1 A1B      -0.391400
     15 N10          4.9080    -4.5320    58.9480 n3         1 A1B      -0.757500
     16 N16          4.7680    -0.3490    58.2020 nb         1 A1B      -0.669000
     17 O01          9.8950    -3.3260    53.9510 o          1 A1B      -0.567100
     18 O04         11.9720    -2.0100    55.1140 oh         1 A1B      -0.410100
     19 O19          2.6350    -3.9280    59.8110 o          1 A1B      -0.534500
     20 O21          3.1540    -6.3510    59.4400 o          1 A1B      -0.534500
     21 S18          3.3010    -4.9590    59.0300 s6         1 A1B       1.192100
     22 H1           4.8060    -1.6960    61.8130 ha         1 A1B       0.120000
     23 H2           4.3450     1.4990    59.0010 h4         1 A1B       0.019100
     24 H3           5.1890    -2.2620    57.5900 h4         1 A1B       0.020100
     25 H4           3.3290    -5.5090    56.7120 h1         1 A1B       0.105033
     26 H5           1.7100    -5.0890    57.3130 h1         1 A1B       0.105033
     27 H6           2.9090    -3.8000    57.0080 h1         1 A1B       0.105033
     28 H7           5.5960    -4.4270    56.0580 ha         1 A1B       0.117000
     29 H8          10.2630    -4.3540    57.6680 ha         1 A1B       0.129000
     30 H9           8.5130    -5.3580    59.0490 ha         1 A1B       0.117000
     31 H10          5.3150    -6.3120    57.9180 h1         1 A1B       0.061700
     32 H11          6.2790    -6.0910    59.3630 h1         1 A1B       0.061700
     33 H12          5.0880    -3.9150    60.9820 h1         1 A1B       0.058200
     34 H13          6.4850    -3.7080    59.9660 h1         1 A1B       0.058200
     35 H14          4.3500     0.7130    61.3550 ha         1 A1B       0.125000
     36 H15          7.3440    -3.4390    54.6550 ha         1 A1B       0.129000
     37 H16         10.9040    -2.3210    56.7900 hn         1 A1B       0.342500
     38 H17         11.7130    -1.1330    54.7990 ho         1 A1B       0.438000
     39 C11          5.3960    -3.6160    59.9760 c3         1 A1B       0.269100
     40 C02          9.9490    -3.2030    55.1620 c          1 A1B       0.618700
@<TRIPOS>BOND
     1     1    11 ar  
     2     1    12 ar  
     3     1    22 1   
     4     2    12 ar  
     5     2    16 ar  
     6     2    23 1   
     7     3    11 ar  
     8     3    16 ar  
     9     3    24 1   
    10     4    21 1   
    11     4    25 1   
    12     4    26 1   
    13     4    27 1   
    14     5     9 ar  
    15     5    13 ar  
    16     5    28 1   
    17     6     7 ar  
    18     6    13 ar  
    19     6    40 1   
    20     7     8 ar  
    21     7    29 1   
    22     8     9 ar  
    23     8    30 1   
    24     9    10 1   
    25    10    15 1   
    26    10    31 1   
    27    10    32 1   
    28    11    39 1   
    29    12    35 1   
    30    13    36 1   
    31    14    18 1   
    32    14    37 1   
    33    14    40 1   
    34    15    21 1   
    35    15    39 1   
    36    17    40 2   
    37    18    38 1   
    38    19    21 2   
    39    20    21 2   
    40    33    39 1   
    41    34    39 1   
@<TRIPOS>SUBSTRUCTURE
     1 A1B         1 TEMP              0 ****  ****    0 ROOT
