@<TRIPOS>MOLECULE
A1B
   71    77     1     0     0
SMALL
abcg2


@<TRIPOS>ATOM
      1 C30        -22.5090     0.7920   -14.1880 c3         1 A1B      -0.080100
      2 C29        -21.4420     1.8760   -14.2910 c3         1 A1B      -0.152400
      3 C31        -20.0450     1.2970   -14.3060 c          1 A1B       0.615100
      4 O2         -19.6720     0.4640   -13.4870 o          1 A1B      -0.605100
      5 N3         -19.2240     1.7480   -15.2580 nj         1 A1B      -0.432800
      6 C17        -19.3570     2.6600   -16.3850 cy         1 A1B       0.117500
      7 C16        -17.8540     1.3710   -15.5510 cy         1 A1B       0.117500
      8 C12        -17.9260     2.2750   -16.8070 cy         1 A1B      -0.116000
      9 C13        -17.7770     1.5470   -18.1300 c5         1 A1B       0.245800
     10 C11        -16.8700     3.3580   -16.9170 c5         1 A1B      -0.084400
     11 C10        -15.6950     2.6310   -17.5650 c5         1 A1B       0.233800
     12 N2         -16.3420     1.5780   -18.3480 nh         1 A1B      -0.794300
     13 C9         -15.8020     0.9460   -19.4250 ca         1 A1B       0.605900
     14 C8         -14.4220     0.8430   -19.6670 ca         1 A1B       0.057000
     15 F1         -13.5380     1.3380   -18.7780 f          1 A1B      -0.173000
     16 N1         -16.6510     0.3620   -20.2730 nb         1 A1B      -0.738000
     17 C6         -16.1980    -0.2820   -21.3380 ca         1 A1B       0.399300
     18 C1         -17.1630    -0.9730   -22.2550 cy         1 A1B      -0.124000
     19 C2         -16.8360    -0.6000   -23.7360 cy         1 A1B      -0.055000
     20 C15        -17.9430    -1.0440   -24.6880 c3         1 A1B      -0.077100
     21 C14        -16.4730     0.8380   -24.0710 c3         1 A1B      -0.077100
     22 C18        -16.5690    -2.3700   -22.5550 cy         1 A1B      -0.087400
     23 C3         -15.7050    -1.6630   -23.6170 cy         1 A1B      -0.072700
     24 C4         -14.4640    -1.0840   -22.9410 c6         1 A1B      -0.012100
     25 C5         -14.8500    -0.3760   -21.6680 ca         1 A1B      -0.148300
     26 C7         -13.9380     0.2050   -20.7870 cp         1 A1B      -0.007000
     27 C19        -12.4780     0.1140   -21.0250 cp         1 A1B       0.006000
     28 C20        -11.8280     1.1460   -21.6420 ca         1 A1B      -0.110000
     29 C28        -11.7700    -1.0600   -20.6430 ca         1 A1B      -0.050000
     30 C27        -12.3970    -2.1520   -19.9980 ca         1 A1B      -0.082000
     31 C26        -11.6810    -3.2640   -19.6470 ca         1 A1B      -0.120000
     32 C25        -10.3010    -3.3340   -19.9240 ca         1 A1B      -0.095000
     33 C24         -9.6670    -2.2940   -20.5470 ca         1 A1B      -0.113000
     34 C23        -10.3810    -1.1310   -20.9220 ca         1 A1B       0.004000
     35 C22         -9.7350    -0.0510   -21.5650 ca         1 A1B      -0.208000
     36 C21        -10.4420     1.0690   -21.9170 ca         1 A1B       0.144100
     37 O1          -9.8980     2.1370   -22.5280 oh         1 A1B      -0.532100
     38 H1         -23.5000     1.2410   -14.1410 hc         1 A1B       0.042033
     39 H2         -22.4850     0.1300   -15.0530 hc         1 A1B       0.042033
     40 H3         -22.3750     0.1840   -13.2940 hc         1 A1B       0.042033
     41 H4         -21.5090     2.5420   -13.4260 hc         1 A1B       0.054700
     42 H5         -21.6250     2.4970   -15.1690 hc         1 A1B       0.054700
     43 H6         -19.4840     3.7070   -16.0990 h1         1 A1B       0.059200
     44 H7         -20.1410     2.3900   -17.0970 h1         1 A1B       0.059200
     45 H8         -17.7140     0.3040   -15.7410 h1         1 A1B       0.059200
     46 H9         -17.1360     1.6900   -14.7900 h1         1 A1B       0.059200
     47 H10        -18.3260     2.0750   -18.9200 h1         1 A1B       0.060700
     48 H11        -18.1570     0.5250   -18.0950 h1         1 A1B       0.060700
     49 H12        -16.6050     3.8040   -15.9570 hc         1 A1B       0.059700
     50 H13        -17.2320     4.1570   -17.5690 hc         1 A1B       0.059700
     51 H14        -15.0320     2.2110   -16.8040 h1         1 A1B       0.057200
     52 H15        -15.1070     3.3030   -18.1910 h1         1 A1B       0.057200
     53 H16        -18.1930    -0.8850   -21.9050 hc         1 A1B       0.087700
     54 H17        -18.2880    -2.0630   -24.5140 hc         1 A1B       0.036533
     55 H18        -18.8100    -0.3870   -24.5970 hc         1 A1B       0.036533
     56 H19        -17.5970    -0.9890   -25.7220 hc         1 A1B       0.036533
     57 H20        -15.6880     1.2540   -23.4410 hc         1 A1B       0.036533
     58 H21        -16.1340     0.9090   -25.1070 hc         1 A1B       0.036533
     59 H22        -17.3490     1.4820   -23.9700 hc         1 A1B       0.036533
     60 H23        -17.2960    -3.0560   -22.9830 hc         1 A1B       0.056200
     61 H24        -16.0530    -2.8780   -21.7370 hc         1 A1B       0.056200
     62 H25        -15.4360    -2.2140   -24.5220 hc         1 A1B       0.068700
     63 H26        -13.7520    -1.8870   -22.7290 hc         1 A1B       0.057700
     64 H27        -13.9470    -0.3940   -23.6170 hc         1 A1B       0.057700
     65 H28        -12.3730     2.0350   -21.9370 ha         1 A1B       0.133000
     66 H29        -13.4580    -2.1060   -19.7840 ha         1 A1B       0.121000
     67 H30        -12.1730    -4.0930   -19.1550 ha         1 A1B       0.115000
     68 H31         -9.7420    -4.2170   -19.6420 ha         1 A1B       0.112000
     69 H32         -8.6060    -2.3480   -20.7590 ha         1 A1B       0.112000
     70 H33         -8.6720    -0.1220   -21.7740 ha         1 A1B       0.115000
     71 H34         -8.9530     2.0040   -22.6690 ho         1 A1B       0.466000
@<TRIPOS>BOND
     1     1     2 1   
     2     1    38 1   
     3     1    39 1   
     4     1    40 1   
     5     2     3 1   
     6     2    41 1   
     7     2    42 1   
     8     3     4 2   
     9     3     5 1   
    10     5     6 1   
    11     5     7 1   
    12     6     8 1   
    13     6    43 1   
    14     6    44 1   
    15     7     8 1   
    16     7    45 1   
    17     7    46 1   
    18     8     9 1   
    19     8    10 1   
    20     9    12 1   
    21     9    47 1   
    22     9    48 1   
    23    10    11 1   
    24    10    49 1   
    25    10    50 1   
    26    11    12 1   
    27    11    51 1   
    28    11    52 1   
    29    12    13 1   
    30    13    14 ar  
    31    13    16 ar  
    32    14    15 1   
    33    14    26 ar  
    34    16    17 ar  
    35    17    18 1   
    36    17    25 ar  
    37    18    19 1   
    38    18    22 1   
    39    18    53 1   
    40    19    20 1   
    41    19    21 1   
    42    19    23 1   
    43    20    54 1   
    44    20    55 1   
    45    20    56 1   
    46    21    57 1   
    47    21    58 1   
    48    21    59 1   
    49    22    23 1   
    50    22    60 1   
    51    22    61 1   
    52    23    24 1   
    53    23    62 1   
    54    24    25 1   
    55    24    63 1   
    56    24    64 1   
    57    25    26 ar  
    58    26    27 1   
    59    27    28 ar  
    60    27    29 ar  
    61    28    36 ar  
    62    28    65 1   
    63    29    30 ar  
    64    29    34 ar  
    65    30    31 ar  
    66    30    66 1   
    67    31    32 ar  
    68    31    67 1   
    69    32    33 ar  
    70    32    68 1   
    71    33    34 ar  
    72    33    69 1   
    73    34    35 ar  
    74    35    36 ar  
    75    35    70 1   
    76    36    37 1   
    77    37    71 1   
@<TRIPOS>SUBSTRUCTURE
     1 A1B         1 TEMP              0 ****  ****    0 ROOT
