@<TRIPOS>MOLECULE
A1B
   44    46     1     0     0
SMALL
abcg2


@<TRIPOS>ATOM
      1 C13         34.9860    51.2380    33.6580 cc         1 A1B      -0.341500
      2 C17         35.3550    50.9140    34.9940 cc         1 A1B      -0.054000
      3 C20         32.5750    47.6040    33.7470 ca         1 A1B      -0.141300
      4 C21         32.2120    46.9490    32.5750 ca         1 A1B       0.363900
      5 C24         33.1430    45.4530    34.6290 ca         1 A1B      -0.162000
      6 C26         30.8720    49.7760    30.4580 ca         1 A1B      -0.103500
      7 C05         28.4840    49.5070    30.2910 ca         1 A1B      -0.146600
      8 C06         28.3340    50.2170    31.4770 ca         1 A1B      -0.072500
      9 C07         29.4490    50.6970    32.1520 ca         1 A1B      -0.103500
     10 C08         30.7250    50.4770    31.6540 ca         1 A1B      -0.076300
     11 C09         31.9420    50.9830    32.3790 c3         1 A1B       0.253100
     12 C14         35.0460    52.5720    33.3810 cd         1 A1B      -0.143000
     13 C16         35.6840    52.0270    35.7000 cd         1 A1B      -0.260000
     14 C19         32.4030    49.0870    33.9040 c3         1 A1B       0.260100
     15 C23         32.7570    44.9050    33.4160 ca         1 A1B       0.342900
     16 C25         33.0500    46.8260    34.7930 ca         1 A1B      -0.054000
     17 C27         29.7660    49.3050    29.7780 ca         1 A1B      -0.072500
     18 N03         26.2930    48.5630    30.2580 ns         1 A1B      -0.393400
     19 N10         32.8150    49.8650    32.7360 n3         1 A1B      -0.737500
     20 N22         32.3000    45.6370    32.4050 nb         1 A1B      -0.666000
     21 O01         27.3300    48.9470    28.2880 o          1 A1B      -0.567100
     22 O04         25.1180    48.2040    29.6770 oh         1 A1B      -0.413100
     23 O12         34.6080    50.6110    31.1620 o          1 A1B      -0.529000
     24 O18         35.0570    48.7810    32.8340 o          1 A1B      -0.529000
     25 S11         34.4390    50.0470    32.4900 sy         1 A1B       1.189600
     26 S15         35.5490    53.4480    34.7510 ss         1 A1B       0.265000
     27 H1          35.3820    49.9130    35.3990 ha         1 A1B       0.153000
     28 H2          31.8380    47.5190    31.7310 h4         1 A1B       0.025100
     29 H3          33.5130    44.8180    35.4230 ha         1 A1B       0.123000
     30 H4          31.8640    49.6010    30.0570 ha         1 A1B       0.125000
     31 H5          27.3510    50.4250    31.8830 ha         1 A1B       0.128000
     32 H6          29.3180    51.2520    33.0720 ha         1 A1B       0.125000
     33 H7          32.4800    51.6710    31.7270 h1         1 A1B       0.060200
     34 H8          31.6560    51.5480    33.2710 h1         1 A1B       0.060200
     35 H9          34.8250    53.0740    32.4510 h4         1 A1B       0.171000
     36 H10         36.0070    52.0860    36.7280 h4         1 A1B       0.157000
     37 H11         32.8950    49.4320    34.8210 h1         1 A1B       0.052700
     38 H12         31.3410    49.3020    34.0470 h1         1 A1B       0.052700
     39 H13         32.8200    43.8350    33.2520 h4         1 A1B       0.019100
     40 H14         33.3520    47.2900    35.7250 ha         1 A1B       0.112000
     41 H15         29.8960    48.7700    28.8470 ha         1 A1B       0.128000
     42 H16         26.3020    48.5380    31.2670 hn         1 A1B       0.341500
     43 H17         25.1830    47.2570    29.4880 ho         1 A1B       0.440000
     44 C02         27.3220    48.9930    29.5060 c          1 A1B       0.619700
@<TRIPOS>BOND
     1     1     2 1   
     2     1    12 2   
     3     1    25 1   
     4     2    13 2   
     5     2    27 1   
     6     3     4 ar  
     7     3    14 1   
     8     3    16 ar  
     9     4    20 ar  
    10     4    28 1   
    11     5    15 ar  
    12     5    16 ar  
    13     5    29 1   
    14     6    10 ar  
    15     6    17 ar  
    16     6    30 1   
    17     7     8 ar  
    18     7    17 ar  
    19     7    44 1   
    20     8     9 ar  
    21     8    31 1   
    22     9    10 ar  
    23     9    32 1   
    24    10    11 1   
    25    11    19 1   
    26    11    33 1   
    27    11    34 1   
    28    12    26 1   
    29    12    35 1   
    30    13    26 1   
    31    13    36 1   
    32    14    19 1   
    33    14    37 1   
    34    14    38 1   
    35    15    20 ar  
    36    15    39 1   
    37    16    40 1   
    38    17    41 1   
    39    18    22 1   
    40    18    42 1   
    41    18    44 1   
    42    19    25 1   
    43    21    44 2   
    44    22    43 1   
    45    23    25 2   
    46    24    25 2   
@<TRIPOS>SUBSTRUCTURE
     1 A1B         1 TEMP              0 ****  ****    0 ROOT
