@<TRIPOS>MOLECULE
A1B
   33    34     1     0     0
SMALL
abcg2


@<TRIPOS>ATOM
      1 C10         26.4110   -11.0900    32.2550 ca         1 A1B       0.025000
      2 C13         28.3130   -13.1880    34.7330 cc         1 A1B      -0.171000
      3 C01         24.7690   -13.8450    30.0910 c3         1 A1B      -0.083600
      4 C02         25.6830   -13.2360    31.1430 c3         1 A1B      -0.034100
      5 C03         25.6000   -11.7370    31.3040 ca         1 A1B      -0.056800
      6 C04         24.7340   -10.9670    30.5370 ca         1 A1B      -0.125500
      7 C05         24.6700    -9.5890    30.6990 ca         1 A1B      -0.124000
      8 C06         25.4700    -8.9640    31.6380 ca         1 A1B      -0.125500
      9 C07         26.3490    -9.7030    32.4280 ca         1 A1B      -0.056800
     10 C08         27.1660    -8.9910    33.4720 c3         1 A1B      -0.034100
     11 C09         26.4240    -8.8830    34.8030 c3         1 A1B      -0.083600
     12 C11         27.3580   -11.8890    33.0590 cd         1 A1B      -0.257000
     13 C12         27.1690   -12.4790    34.2760 cc         1 A1B      -0.126000
     14 C14         29.3600   -13.1360    33.8620 cd         1 A1B      -0.207600
     15 C16         30.7370   -13.7410    33.9500 c          1 A1B       0.733600
     16 O17         31.4720   -13.5260    32.9660 o          1 A1B      -0.708500
     17 O18         30.9930   -14.3830    34.9830 o          1 A1B      -0.708500
     18 S15         28.9470   -12.2120    32.4700 ss         1 A1B       0.212000
     19 H15         28.3540   -13.7180    35.6750 ha         1 A1B       0.135000
     20 H3          24.9070   -14.9250    30.0650 hc         1 A1B       0.027367
     21 H1          23.7160   -13.6540    30.3040 hc         1 A1B       0.027367
     22 H2          24.9830   -13.4630    29.0930 hc         1 A1B       0.027367
     23 H4          25.4760   -13.7020    32.1100 hc         1 A1B       0.057950
     24 H5          26.7180   -13.5090    30.9150 hc         1 A1B       0.057950
     25 H6          24.0980   -11.4360    29.7970 ha         1 A1B       0.100000
     26 H7          23.9940    -9.0060    30.0870 ha         1 A1B       0.096000
     27 H8          25.4200    -7.8880    31.7630 ha         1 A1B       0.100000
     28 H10         27.4050    -7.9870    33.1130 hc         1 A1B       0.057950
     29 H9          28.1190    -9.5000    33.6280 hc         1 A1B       0.057950
     30 H12         27.0210    -8.3410    35.5380 hc         1 A1B       0.027367
     31 H11         25.4780    -8.3530    34.6850 hc         1 A1B       0.027367
     32 H13         26.2050    -9.8690    35.2130 hc         1 A1B       0.027367
     33 H14         26.2400   -12.4100    34.8260 ha         1 A1B       0.104000
@<TRIPOS>BOND
     1     1     5 ar  
     2     1     9 ar  
     3     1    12 1   
     4     2    13 1   
     5     2    14 2   
     6     2    19 1   
     7     3     4 1   
     8     3    20 1   
     9     3    21 1   
    10     3    22 1   
    11     4     5 1   
    12     4    23 1   
    13     4    24 1   
    14     5     6 ar  
    15     6     7 ar  
    16     6    25 1   
    17     7     8 ar  
    18     7    26 1   
    19     8     9 ar  
    20     8    27 1   
    21     9    10 1   
    22    10    11 1   
    23    10    28 1   
    24    10    29 1   
    25    11    30 1   
    26    11    31 1   
    27    11    32 1   
    28    12    13 2   
    29    12    18 1   
    30    13    33 1   
    31    14    15 1   
    32    14    18 1   
    33    15    16 1   
    34    15    17 1   
@<TRIPOS>SUBSTRUCTURE
     1 A1B         1 TEMP              0 ****  ****    0 ROOT
