@<TRIPOS>MOLECULE
A1B
   62    65     1     0     0
SMALL
abcg2


@<TRIPOS>ATOM
      1 C4          65.1140   -21.1180     3.6740 cc         1 A1B      -0.240400
      2 C5          63.9370   -21.6800     4.0550 cd         1 A1B       0.215100
      3 C6          63.8630   -22.9450     4.6900 cd         1 A1B      -0.334200
      4 C8          62.5790   -23.4560     5.2540 c          1 A1B       0.645300
      5 C10         65.2430   -19.7970     2.9880 c3         1 A1B      -0.030900
      6 C15         59.8900   -21.7090     7.0510 cx         1 A1B      -0.133900
      7 C20         66.6750   -27.2950     7.5620 ca         1 A1B      -0.097000
      8 C21         67.2140   -26.4030     8.4790 ca         1 A1B       0.193000
      9 C22         67.0230   -25.0380     8.3390 ca         1 A1B      -0.067000
     10 C26         62.2740   -20.0120     4.4260 ca         1 A1B       0.169100
     11 C28         62.3430   -18.2920     6.0860 ca         1 A1B      -0.049000
     12 C1          65.0090   -23.6960     4.7640 cc         1 A1B       0.346600
     13 N2          66.1990   -23.1800     4.3430 n          1 A1B      -0.286000
     14 C3          66.3330   -21.8550     3.9100 c          1 A1B       0.564200
     15 O9          67.4460   -21.4030     3.6800 o          1 A1B      -0.534000
     16 O11         62.7370   -21.0960     3.7600 os         1 A1B      -0.238200
     17 O12         62.0970   -24.5290     4.9190 o          1 A1B      -0.603100
     18 N13         62.0180   -22.6490     6.1690 ns         1 A1B      -0.471900
     19 C14         60.7430   -22.8990     6.7570 cx         1 A1B       0.044700
     20 C16         59.5120   -22.6450     5.9460 cx         1 A1B      -0.133900
     21 N17         64.9930   -24.9940     5.2240 nu         1 A1B      -0.848000
     22 C18         65.7340   -25.4230     6.3290 ca         1 A1B       0.256000
     23 C19         65.9580   -26.7860     6.5010 ca         1 A1B       0.145000
     24 C23         66.2750   -24.5580     7.2740 ca         1 A1B      -0.137000
     25 F24         65.4490   -27.6310     5.5960 f          1 A1B      -0.164000
     26 C27         62.9430   -19.3760     5.4600 ca         1 A1B      -0.202000
     27 C29         61.0910   -17.8440     5.7060 ca         1 A1B      -0.145000
     28 C30         60.4200   -18.4640     4.6550 ca         1 A1B       0.357000
     29 C31         61.0280   -19.5430     4.0130 ca         1 A1B       0.048000
     30 CL32        60.2350   -20.3410     2.7090 cl         1 A1B      -0.169000
     31 N33         59.1390   -18.0660     4.2600 nu         1 A1B      -0.955100
     32 S34         58.6720   -16.5090     3.9600 s6         1 A1B       1.301200
     33 N35         57.8160   -16.7470     2.5840 n7         1 A1B      -0.908300
     34 O36         57.7190   -16.0420     4.9470 o          1 A1B      -0.550500
     35 O37         59.8960   -15.7540     3.7660 o          1 A1B      -0.550500
     36 C38         58.5460   -16.9840     1.3450 c3         1 A1B       0.184100
     37 H4          67.1180   -25.0450     4.1160 h1         1 A1B       0.064700
     38 H5          67.9940   -23.6840     3.4190 h1         1 A1B       0.064700
     39 H6          68.0030   -23.9250     5.1690 h1         1 A1B       0.064700
     40 H7          64.2850   -19.4130     2.6480 hc         1 A1B       0.053700
     41 H8          65.6840   -19.0490     3.6500 hc         1 A1B       0.053700
     42 H9          65.8950   -19.8770     2.1180 hc         1 A1B       0.053700
     43 H10         60.2770   -20.7340     6.7770 hc         1 A1B       0.079950
     44 H11         59.3120   -21.7190     7.9660 hc         1 A1B       0.079950
     45 H12         66.8120   -28.3650     7.6460 ha         1 A1B       0.150000
     46 H13         67.4330   -24.3380     9.0530 ha         1 A1B       0.136000
     47 H14         62.8580   -17.8050     6.9020 ha         1 A1B       0.125000
     48 H16         62.5580   -21.8810     6.5380 hn         1 A1B       0.320500
     49 H17         60.7130   -23.7220     7.4640 h1         1 A1B       0.087700
     50 H18         58.6700   -23.3080     6.0930 hc         1 A1B       0.079950
     51 H19         59.6460   -22.3030     4.9280 hc         1 A1B       0.079950
     52 H20         64.1150   -25.4710     5.0680 hn         1 A1B       0.539000
     53 H21         66.1100   -23.4910     7.1890 ha         1 A1B       0.128000
     54 H22         63.9160   -19.7210     5.7860 ha         1 A1B       0.132000
     55 H23         60.6220   -17.0280     6.2380 ha         1 A1B       0.134000
     56 H24         58.4310   -18.7730     4.1040 hn         1 A1B       0.522000
     57 H25         57.0570   -16.0790     2.5060 hn         1 A1B       0.493000
     58 H26         57.8190   -17.2440     0.5800 h1         1 A1B       0.053367
     59 H27         59.1190   -16.1190     1.0090 h1         1 A1B       0.053367
     60 H28         59.2170   -17.8310     1.4670 h1         1 A1B       0.053367
     61 C7          67.3990   -24.0080     4.2660 c3         1 A1B       0.068300
     62 I25         68.3290   -27.1420    10.0970 i          1 A1B      -0.288000
@<TRIPOS>BOND
     1     1     2 2   
     2     1     5 1   
     3     1    14 1   
     4     2     3 1   
     5     2    16 1   
     6     3     4 1   
     7     3    12 2   
     8     4    17 2   
     9     4    18 1   
    10     5    40 1   
    11     5    41 1   
    12     5    42 1   
    13     6    19 1   
    14     6    20 1   
    15     6    43 1   
    16     6    44 1   
    17     7     8 ar  
    18     7    23 ar  
    19     7    45 1   
    20     8     9 ar  
    21     8    62 1   
    22     9    24 ar  
    23     9    46 1   
    24    10    16 1   
    25    10    26 ar  
    26    10    29 ar  
    27    11    26 ar  
    28    11    27 ar  
    29    11    47 1   
    30    12    13 1   
    31    12    21 1   
    32    13    14 1   
    33    13    61 1   
    34    14    15 2   
    35    18    19 1   
    36    18    48 1   
    37    19    20 1   
    38    19    49 1   
    39    20    50 1   
    40    20    51 1   
    41    21    22 1   
    42    21    52 1   
    43    22    23 ar  
    44    22    24 ar  
    45    23    25 1   
    46    24    53 1   
    47    26    54 1   
    48    27    28 ar  
    49    27    55 1   
    50    28    29 ar  
    51    28    31 1   
    52    29    30 1   
    53    31    32 1   
    54    31    56 1   
    55    32    33 1   
    56    32    34 2   
    57    32    35 2   
    58    33    36 1   
    59    33    57 1   
    60    36    58 1   
    61    36    59 1   
    62    36    60 1   
    63    37    61 1   
    64    38    61 1   
    65    39    61 1   
@<TRIPOS>SUBSTRUCTURE
     1 A1B         1 TEMP              0 ****  ****    0 ROOT
