@<TRIPOS>MOLECULE
A1B
   32    33     1     0     0
SMALL
abcg2


@<TRIPOS>ATOM
      1 C11         42.3970   -39.4900   119.7780 ca         1 A1B      -0.143600
      2 C12         43.1430   -38.3460   120.0350 ca         1 A1B      -0.056000
      3 C13         43.2610   -37.8810   121.3360 ca         1 A1B      -0.104000
      4 C14         42.6360   -38.5580   122.3740 ca         1 A1B      -0.088000
      5 C15         41.8870   -39.6990   122.1180 ca         1 A1B      -0.069000
      6 C16         41.7630   -40.1710   120.8190 ca         1 A1B      -0.121600
      7 C17         40.9590   -41.3980   120.5500 c          1 A1B       0.587900
      8 C01         38.4180   -43.6210   116.2990 c3         1 A1B      -0.055400
      9 C02         37.8990   -42.9800   117.5520 c2         1 A1B      -0.108400
     10 C03         36.4620   -42.5530   117.4750 c3         1 A1B      -0.055400
     11 C04         38.6070   -42.7820   118.6660 c2         1 A1B      -0.219200
     12 C06         40.8640   -41.9030   119.1770 cc         1 A1B      -0.209400
     13 C07         41.4590   -41.2220   118.1770 cd         1 A1B       0.061900
     14 O08         41.3700   -41.6140   116.9140 oh         1 A1B      -0.507100
     15 C09         42.2670   -39.9910   118.4050 c          1 A1B       0.552900
     16 O10         42.7860   -39.4590   117.4450 o          1 A1B      -0.520100
     17 O18         40.3890   -41.9640   121.4640 o          1 A1B      -0.511100
     18 H1          43.6290   -37.8210   119.2240 ha         1 A1B       0.137000
     19 H2          43.8420   -36.9910   121.5390 ha         1 A1B       0.123000
     20 H3          42.7300   -38.1950   123.3890 ha         1 A1B       0.123000
     21 H4          41.4020   -40.2200   122.9320 ha         1 A1B       0.142000
     22 H5          39.4650   -43.9080   116.3520 hc         1 A1B       0.038367
     23 H6          37.8370   -44.5160   116.0600 hc         1 A1B       0.038367
     24 H7          38.3010   -42.9430   115.4500 hc         1 A1B       0.038367
     25 H8          36.1180   -42.0950   118.4010 hc         1 A1B       0.038367
     26 H9          36.3120   -41.8340   116.6650 hc         1 A1B       0.038367
     27 H10         35.8130   -43.4050   117.2550 hc         1 A1B       0.038367
     28 H11         38.1070   -42.3020   119.5030 ha         1 A1B       0.172000
     29 H12         40.1080   -43.7890   119.7930 hc         1 A1B       0.063700
     30 H13         40.4720   -43.6970   118.0870 hc         1 A1B       0.063700
     31 H14         41.8810   -41.0050   116.3540 ho         1 A1B       0.490000
     32 C05         40.0460   -43.1380   118.9190 c3         1 A1B       0.022000
@<TRIPOS>BOND
     1     1     2 ar  
     2     1     6 ar  
     3     1    15 1   
     4     2     3 ar  
     5     2    18 1   
     6     3     4 ar  
     7     3    19 1   
     8     4     5 ar  
     9     4    20 1   
    10     5     6 ar  
    11     5    21 1   
    12     6     7 1   
    13     7    12 1   
    14     7    17 2   
    15     8     9 1   
    16     8    22 1   
    17     8    23 1   
    18     8    24 1   
    19     9    10 1   
    20     9    11 2   
    21    10    25 1   
    22    10    26 1   
    23    10    27 1   
    24    11    28 1   
    25    11    32 1   
    26    12    13 2   
    27    12    32 1   
    28    13    14 1   
    29    13    15 1   
    30    14    31 1   
    31    15    16 2   
    32    29    32 1   
    33    30    32 1   
@<TRIPOS>SUBSTRUCTURE
     1 A1B         1 TEMP              0 ****  ****    0 ROOT
