@<TRIPOS>MOLECULE
A1B
   69    75     1     0     0
SMALL
abcg2


@<TRIPOS>ATOM
      1 N3          -1.0510    14.0170     8.2310 nb         1 A1B      -0.737000
      2 C4          -2.2960    13.5580     8.2050 ca         1 A1B       0.370900
      3 C5          -3.4130    14.3630     8.1080 ca         1 A1B      -0.196000
      4 C6          -3.2310    15.7450     8.0320 ca         1 A1B       0.020700
      5 C7          -4.3540    16.6970     7.9200 cx         1 A1B      -0.100400
      6 C10          2.5280    16.9480     8.1590 ca         1 A1B      -0.150600
      7 C13          4.5680    18.1160     8.6910 ca         1 A1B      -0.106000
      8 C15          4.6590    16.0510     7.4710 ca         1 A1B      -0.106000
      9 C17          6.7830    17.2150     8.0030 cc         1 A1B       0.425500
     10 C22          7.7880    17.9950    10.3530 ca         1 A1B       0.455900
     11 C24         10.0640    18.2180    10.1170 ca         1 A1B       0.199900
     12 C26          9.6810    16.7930     6.0550 c6         1 A1B       0.079300
     13 C28          9.4330    17.5980     4.7820 c6         1 A1B      -0.087400
     14 C1          -1.9300    16.2350     8.0600 ca         1 A1B      -0.174000
     15 C12          3.1880    18.0330     8.7320 ca         1 A1B      -0.072500
     16 C14          5.3220    17.1200     8.0710 ca         1 A1B      -0.072900
     17 C16          3.2780    15.9650     7.5170 ca         1 A1B      -0.072500
     18 C18          7.7270    17.6270     8.9860 ca         1 A1B      -0.377900
     19 C19          8.9620    17.5380     8.3390 ca         1 A1B       0.162500
     20 C2          -0.8730    15.3310     8.1600 ca         1 A1B       0.478900
     21 C29         10.4240    17.1890     3.6960 c6         1 A1B      -0.104400
     22 C30         10.4280    15.6790     3.4890 c6         1 A1B       0.096000
     23 C32          9.6750    15.2930     5.7450 c6         1 A1B       0.073000
     24 C34         12.9500    14.3150     4.1280 cx         1 A1B      -0.238700
     25 C36         14.3150    14.9100     4.3830 cx         1 A1B      -0.100400
     26 C37         14.1180    13.4430     4.4940 cx         1 A1B      -0.100400
     27 C38         -5.5850    16.3480     7.1230 cx         1 A1B      -0.116400
     28 C39         -5.6690    16.4280     8.6060 cx         1 A1B      -0.116400
     29 C9           1.0350    16.9270     8.2190 c          1 A1B       0.627700
     30 N20          8.7160    17.0960     7.0900 na         1 A1B      -0.012100
     31 N21          7.4080    16.8990     6.8920 nd         1 A1B      -0.521100
     32 N23          8.9750    18.3090    10.8770 nb         1 A1B      -0.310000
     33 N25         10.1560    17.8280     8.8630 nb         1 A1B      -0.224000
     34 N27          6.7240    18.0490    11.1570 nv         1 A1B      -1.065900
     35 N31         10.6870    14.9980     4.7500 n          1 A1B      -0.395800
     36 N8           0.4740    15.6900     8.1800 ns         1 A1B      -0.318900
     37 O11          0.3970    17.9600     8.3090 o          1 A1B      -0.577100
     38 O35         12.1380    14.3320     6.3450 o          1 A1B      -0.597100
     39 H4          -2.4060    12.4810     8.2650 h4         1 A1B       0.018100
     40 H5          -4.3970    13.9120     8.0930 ha         1 A1B       0.125000
     41 H7          -4.0480    17.7360     7.8810 hc         1 A1B       0.090700
     42 H13          5.0580    18.9800     9.1230 ha         1 A1B       0.130000
     43 H15          5.2260    15.2780     6.9710 ha         1 A1B       0.130000
     44 H24         10.9940    18.4900    10.6040 h5         1 A1B       0.049100
     45 H26         10.6540    17.0590     6.4750 h1         1 A1B       0.099700
     46 H28A         8.4130    17.4130     4.4340 hc         1 A1B       0.060700
     47 H28B         9.5160    18.6660     4.9930 hc         1 A1B       0.060700
     48 H1          -1.7540    17.2970     8.0040 ha         1 A1B       0.155000
     49 H12          2.6210    18.8200     9.2110 ha         1 A1B       0.129500
     50 H16          2.8000    15.1290     7.0220 ha         1 A1B       0.129500
     51 H29A        10.1650    17.6820     2.7560 hc         1 A1B       0.053200
     52 H29B        11.4320    17.5180     3.9610 hc         1 A1B       0.053200
     53 H30B         9.4530    15.3490     3.1200 h1         1 A1B       0.055700
     54 H30A        11.1590    15.4010     2.7360 h1         1 A1B       0.055700
     55 H32B         9.8470    14.7100     6.6460 h1         1 A1B       0.076700
     56 H32A         8.7000    15.0090     5.3380 h1         1 A1B       0.076700
     57 H34         12.6450    14.2680     3.0930 hc         1 A1B       0.087700
     58 H36A        14.8460    15.3050     3.5270 hc         1 A1B       0.081200
     59 H36B        14.4440    15.4760     5.2960 hc         1 A1B       0.081200
     60 H37A        14.1260    12.9980     5.4800 hc         1 A1B       0.081200
     61 H37B        14.5090    12.8120     3.7080 hc         1 A1B       0.081200
     62 H38B        -6.0300    17.1400     6.5350 hc         1 A1B       0.074700
     63 H38A        -5.6220    15.3710     6.6570 hc         1 A1B       0.074700
     64 H39B        -5.7650    15.5070     9.1670 hc         1 A1B       0.074700
     65 H39A        -6.1730    17.2750     9.0520 hc         1 A1B       0.074700
     66 H27B         6.8680    18.2280    12.1370 hn         1 A1B       0.502000
     67 H27A         5.8350    17.6650    10.8880 hn         1 A1B       0.502000
     68 H8           1.0850    14.8870     8.2280 hn         1 A1B       0.170000
     69 C33         11.9040    14.5530     5.1630 c          1 A1B       0.632100
@<TRIPOS>BOND
     1     1     2 ar  
     2     1    20 ar  
     3     2     3 ar  
     4     2    39 1   
     5     3     4 ar  
     6     3    40 1   
     7     4     5 1   
     8     4    14 ar  
     9     5    27 1   
    10     5    28 1   
    11     5    41 1   
    12     6    15 ar  
    13     6    17 ar  
    14     6    29 1   
    15     7    15 ar  
    16     7    16 ar  
    17     7    42 1   
    18     8    16 ar  
    19     8    17 ar  
    20     8    43 1   
    21     9    16 1   
    22     9    18 1   
    23     9    31 2   
    24    10    18 ar  
    25    10    32 ar  
    26    10    34 1   
    27    11    32 ar  
    28    11    33 ar  
    29    11    44 1   
    30    12    13 1   
    31    12    23 1   
    32    12    30 1   
    33    12    45 1   
    34    13    21 1   
    35    13    46 1   
    36    13    47 1   
    37    14    20 ar  
    38    14    48 1   
    39    15    49 1   
    40    17    50 1   
    41    18    19 ar  
    42    19    30 1   
    43    19    33 ar  
    44    20    36 1   
    45    21    22 1   
    46    21    51 1   
    47    21    52 1   
    48    22    35 1   
    49    22    53 1   
    50    22    54 1   
    51    23    35 1   
    52    23    55 1   
    53    23    56 1   
    54    24    25 1   
    55    24    26 1   
    56    24    57 1   
    57    24    69 1   
    58    25    26 1   
    59    25    58 1   
    60    25    59 1   
    61    26    60 1   
    62    26    61 1   
    63    27    28 1   
    64    27    62 1   
    65    27    63 1   
    66    28    64 1   
    67    28    65 1   
    68    29    36 1   
    69    29    37 2   
    70    30    31 1   
    71    34    66 1   
    72    34    67 1   
    73    35    69 1   
    74    36    68 1   
    75    38    69 2   
@<TRIPOS>SUBSTRUCTURE
     1 A1B         1 TEMP              0 ****  ****    0 ROOT
