@<TRIPOS>MOLECULE
A1B
   48    52     1     0     0
SMALL
abcg2


@<TRIPOS>ATOM
      1 C4          45.2000   -39.0250   -44.8190 ca         1 A1B       0.150100
      2 C5          45.1270   -38.7100   -46.1720 ca         1 A1B      -0.198000
      3 C6          46.2860   -38.7610   -46.9400 ca         1 A1B      -0.069000
      4 C7          47.5010   -39.1170   -46.3850 ca         1 A1B      -0.150000
      5 C8          47.5770   -39.4370   -45.0260 ca         1 A1B      -0.051300
      6 C10         49.2930   -41.2870   -44.8890 c6         1 A1B      -0.157400
      7 C15         48.9580   -39.8370   -42.9610 cc         1 A1B      -0.265300
      8 C20         48.5010   -41.4170   -39.8100 cc         1 A1B       0.471500
      9 C21         48.6640   -40.8500   -38.5020 cc         1 A1B      -0.139000
     10 C22         48.4160   -41.6270   -37.4240 cd         1 A1B      -0.010000
     11 C26         47.5110   -44.6650   -38.8910 cd         1 A1B       0.362700
     12 C1          41.8900   -38.7420   -43.3220 c3         1 A1B      -0.095100
     13 C2          42.8710   -38.6610   -44.4670 c3         1 A1B       0.165600
     14 O3          44.1560   -39.0080   -43.9720 os         1 A1B      -0.349100
     15 C9          48.9170   -39.8590   -44.4490 c6         1 A1B       0.085900
     16 C11         48.5940   -42.4030   -44.1390 c          1 A1B       0.583000
     17 O12         48.2660   -43.4510   -44.6530 o          1 A1B      -0.515000
     18 N13         48.4150   -42.1910   -42.7940 ns         1 A1B      -0.394100
     19 C14         48.6930   -40.9660   -42.2460 cd         1 A1B       0.070600
     20 C16         49.1570   -38.8320   -41.9870 cc         1 A1B       0.339300
     21 N18         49.0280   -39.3120   -40.7740 nd         1 A1B      -0.523800
     22 N19         48.7440   -40.6320   -40.9250 na         1 A1B       0.077300
     23 C23         48.0130   -42.9640   -37.6520 cd         1 A1B      -0.162000
     24 N24         47.7030   -43.9610   -36.8560 nc         1 A1B      -0.060000
     25 N25         47.3940   -45.0110   -37.6370 nc         1 A1B      -0.361700
     26 N27         47.9040   -43.3730   -38.9540 na         1 A1B       0.139000
     27 N28         48.1300   -42.6360   -40.0390 nd         1 A1B      -0.543800
     28 C29         46.4280   -39.3870   -44.2570 ca         1 A1B      -0.134000
     29 H1          44.1950   -38.4220   -46.6400 ha         1 A1B       0.118000
     30 H2          46.2290   -38.5090   -47.9920 ha         1 A1B       0.112000
     31 H3          48.3930   -39.1460   -46.9990 ha         1 A1B       0.112000
     32 H4          49.1200   -41.4310   -45.9540 hc         1 A1B       0.080700
     33 H5          50.3650   -41.4310   -44.7170 hc         1 A1B       0.080700
     34 H6          49.6050   -36.8580   -41.3050 hc         1 A1B       0.057033
     35 H7          50.3550   -37.2920   -42.8470 hc         1 A1B       0.057033
     36 H8          48.6400   -36.9240   -42.7830 hc         1 A1B       0.057033
     37 H9          48.9750   -39.8230   -38.4000 ha         1 A1B       0.170000
     38 H10         48.5190   -41.2580   -36.4130 ha         1 A1B       0.159000
     39 H11         47.3350   -45.2810   -39.7580 h5         1 A1B       0.090800
     40 H12         40.8950   -38.4800   -43.6790 hc         1 A1B       0.047700
     41 H13         41.8420   -39.7490   -42.9080 hc         1 A1B       0.047700
     42 H14         42.1520   -38.0490   -42.5220 hc         1 A1B       0.047700
     43 H15         42.8870   -37.6500   -44.8870 h1         1 A1B       0.033700
     44 H16         42.5760   -39.3460   -45.2700 h1         1 A1B       0.033700
     45 H17         49.6790   -39.1900   -44.8570 hc         1 A1B       0.072700
     46 H18         48.0430   -42.9330   -42.2160 hn         1 A1B       0.357500
     47 H19         46.4600   -39.6190   -43.1990 ha         1 A1B       0.130000
     48 C17         49.4570   -37.3980   -42.2370 c3         1 A1B      -0.130400
@<TRIPOS>BOND
     1     1     2 ar  
     2     1    14 1   
     3     1    28 ar  
     4     2     3 ar  
     5     2    29 1   
     6     3     4 ar  
     7     3    30 1   
     8     4     5 ar  
     9     4    31 1   
    10     5    15 1   
    11     5    28 ar  
    12     6    15 1   
    13     6    16 1   
    14     6    32 1   
    15     6    33 1   
    16     7    15 1   
    17     7    19 2   
    18     7    20 1   
    19     8     9 1   
    20     8    22 1   
    21     8    27 2   
    22     9    10 2   
    23     9    37 1   
    24    10    23 1   
    25    10    38 1   
    26    11    25 2   
    27    11    26 1   
    28    11    39 1   
    29    12    13 1   
    30    12    40 1   
    31    12    41 1   
    32    12    42 1   
    33    13    14 1   
    34    13    43 1   
    35    13    44 1   
    36    15    45 1   
    37    16    17 2   
    38    16    18 1   
    39    18    19 1   
    40    18    46 1   
    41    19    22 1   
    42    20    21 2   
    43    20    48 1   
    44    21    22 1   
    45    23    24 2   
    46    23    26 1   
    47    24    25 1   
    48    26    27 1   
    49    28    47 1   
    50    34    48 1   
    51    35    48 1   
    52    36    48 1   
@<TRIPOS>SUBSTRUCTURE
     1 A1B         1 TEMP              0 ****  ****    0 ROOT
