@<TRIPOS>MOLECULE
A1B
   46    45     1     0     0
SMALL
abcg2


@<TRIPOS>ATOM
      1 CB         -28.3080    16.1710    56.8700 c3         1 A1B      -0.064400
      2 CD         -30.0190    15.8030    58.7340 c3         1 A1B      -0.079400
      3 C01        -28.3610    11.5750    47.9260 c3         1 A1B      -0.089100
      4 C02        -27.3880    10.5480    48.4930 c3         1 A1B      -0.072400
      5 C03        -26.4380    11.1100    49.5470 c3         1 A1B      -0.074400
      6 C04        -27.1290    11.5950    50.8160 c3         1 A1B      -0.078400
      7 C05        -26.1450    12.1050    51.8650 c3         1 A1B      -0.074400
      8 C06        -26.7900    12.5030    53.1890 c3         1 A1B      -0.063400
      9 C07        -27.7350    13.6950    53.0670 c3         1 A1B      -0.161400
     10 C08        -28.3880    14.0730    54.3820 c          1 A1B       0.586100
     11 CA         -29.2760    15.9700    55.6930 c3         1 A1B      -0.039300
     12 C          -29.9060    17.3140    55.2540 c          1 A1B       0.715000
     13 CG         -28.9210    16.6920    58.1660 c3         1 A1B      -0.054400
     14 CE         -30.4820    16.2560    60.1100 c3         1 A1B       0.147800
     15 N          -28.5770    15.3850    54.5670 ns         1 A1B      -0.467900
     16 NZ         -31.5290    15.3840    60.6260 n8         1 A1B      -0.999200
     17 O09        -28.7440    13.2240    55.1940 o          1 A1B      -0.656100
     18 OXT        -30.9110    17.6830    55.8860 o          1 A1B      -0.728000
     19 O          -29.3310    17.9170    54.3240 o          1 A1B      -0.728000
     20 HB2        -27.8270    15.2100    57.0750 hc         1 A1B       0.025700
     21 HB3        -27.5110    16.8480    56.5470 hc         1 A1B       0.025700
     22 HD2        -30.8760    15.8010    58.0530 hc         1 A1B       0.056200
     23 HD3        -29.6670    14.7680    58.7980 hc         1 A1B       0.056200
     24 H5         -28.9600    11.1480    47.1200 hc         1 A1B       0.031367
     25 H6         -29.0530    11.9440    48.6830 hc         1 A1B       0.031367
     26 H7         -27.8270    12.4360    47.5200 hc         1 A1B       0.031367
     27 H8         -27.9480     9.7100    48.9200 hc         1 A1B       0.030700
     28 H9         -26.7970    10.1280    47.6740 hc         1 A1B       0.030700
     29 H10        -25.7080    10.3390    49.8140 hc         1 A1B       0.031700
     30 H11        -25.8620    11.9340    49.1110 hc         1 A1B       0.031700
     31 H12        -27.8440    12.3850    50.5680 hc         1 A1B       0.042700
     32 H13        -27.7180    10.7760    51.2440 hc         1 A1B       0.042700
     33 H14        -25.4030    11.3240    52.0600 hc         1 A1B       0.029200
     34 H15        -25.5880    12.9550    51.4570 hc         1 A1B       0.029200
     35 H16        -27.3320    11.6480    53.5980 hc         1 A1B       0.049200
     36 H17        -27.2040    14.5500    52.6400 hc         1 A1B       0.049200
     37 HA         -30.0740    15.2890    55.9950 h1         1 A1B       0.061700
     38 HG2        -28.1170    16.7780    58.9050 hc         1 A1B       0.030200
     39 HG3        -29.3070    17.7040    58.0250 hc         1 A1B       0.030200
     40 HE2        -29.6350    16.2170    60.8010 h1         1 A1B       0.017700
     41 HE3        -30.7800    17.3130    60.0520 h1         1 A1B       0.017700
     42 H          -28.2850    16.0460    53.8620 hn         1 A1B       0.333500
     43 HZ1        -31.8090    15.7010    61.5450 hn         1 A1B       0.381500
     44 HZ2        -32.3530    15.4790    60.0450 hn         1 A1B       0.381500
     45 H1         -26.0040    12.7430    53.9100 hc         1 A1B       0.049200
     46 H2         -28.5440    13.4610    52.3680 hc         1 A1B       0.049200
@<TRIPOS>BOND
     1     1    11 1   
     2     1    13 1   
     3     1    20 1   
     4     1    21 1   
     5     2    13 1   
     6     2    14 1   
     7     2    22 1   
     8     2    23 1   
     9     3     4 1   
    10     3    24 1   
    11     3    25 1   
    12     3    26 1   
    13     4     5 1   
    14     4    27 1   
    15     4    28 1   
    16     5     6 1   
    17     5    29 1   
    18     5    30 1   
    19     6     7 1   
    20     6    31 1   
    21     6    32 1   
    22     7     8 1   
    23     7    33 1   
    24     7    34 1   
    25     8     9 1   
    26     8    35 1   
    27     8    45 1   
    28     9    10 1   
    29     9    36 1   
    30     9    46 1   
    31    10    15 1   
    32    10    17 2   
    33    11    12 1   
    34    11    15 1   
    35    11    37 1   
    36    12    18 1   
    37    12    19 1   
    38    13    38 1   
    39    13    39 1   
    40    14    16 1   
    41    14    40 1   
    42    14    41 1   
    43    15    42 1   
    44    16    43 1   
    45    16    44 1   
@<TRIPOS>SUBSTRUCTURE
     1 A1B         1 TEMP              0 ****  ****    0 ROOT
