@<TRIPOS>MOLECULE
A1B
   45    48     1     0     0
SMALL
abcg2


@<TRIPOS>ATOM
      1 N2         -44.8240   -29.0680     2.6130 nu         1 A1B      -0.923100
      2 C3         -46.3120   -32.5340     1.1710 c3         1 A1B       0.106000
      3 C6         -43.5990   -29.0950     1.8450 c3         1 A1B       0.231800
      4 C9         -46.0650   -29.0340     6.0240 ca         1 A1B       0.205500
      5 C12        -48.1690   -29.8770     3.1450 ca         1 A1B      -0.047000
      6 C14        -50.1450   -30.2360     4.4520 ca         1 A1B       0.191000
      7 C17        -43.0550   -31.4610     2.5930 c5         1 A1B      -0.167400
      8 C1         -47.5600   -34.3560    -0.0370 c3         1 A1B      -0.089100
      9 C10        -46.1230   -29.1890     4.6350 cp         1 A1B      -0.250000
     10 C11        -47.4750   -29.5600     4.3110 cp         1 A1B      -0.058000
     11 C13        -49.5100   -30.2180     3.2160 ca         1 A1B      -0.175000
     12 C15        -49.5110   -29.9320     5.6370 ca         1 A1B      -0.174000
     13 C16        -48.1660   -29.5980     5.5440 ca         1 A1B       0.009800
     14 C18        -44.4030   -32.1440     2.6830 c          1 A1B       0.564000
     15 C2         -46.1920   -33.7930     0.3190 c3         1 A1B      -0.099400
     16 C4         -44.2670   -31.1850     0.5510 c5         1 A1B       0.096000
     17 C5         -43.1910   -30.5040     1.4100 c5         1 A1B      -0.102700
     18 C7         -44.9100   -28.9880     3.9500 ca         1 A1B       0.443900
     19 C8         -43.9050   -28.5820     5.9700 ca         1 A1B       0.192900
     20 N1         -45.0380   -31.9490     1.5110 n          1 A1B      -0.425800
     21 N3         -43.8090   -28.6970     4.6540 nb         1 A1B      -0.301000
     22 N4         -44.9790   -28.7240     6.7280 nb         1 A1B      -0.238000
     23 N5         -47.2950   -29.2720     6.5510 na         1 A1B      -0.322300
     24 O1         -44.8360   -32.7770     3.6330 o          1 A1B      -0.542000
     25 H13        -45.6750   -29.2430     2.1050 hn         1 A1B       0.495000
     26 H7         -46.9040   -31.7820     0.6400 h1         1 A1B       0.054700
     27 H8         -46.8420   -32.7580     2.0970 h1         1 A1B       0.054700
     28 H11        -42.8060   -28.6510     2.4440 h1         1 A1B       0.067700
     29 H12        -43.7300   -28.4660     0.9630 h1         1 A1B       0.067700
     30 H15        -47.6890   -29.8680     2.1760 ha         1 A1B       0.108000
     31 H19        -42.3010   -32.2290     2.3940 hc         1 A1B       0.085200
     32 H20        -42.7820   -30.9800     3.5320 hc         1 A1B       0.085200
     33 H3         -47.4710   -35.2570    -0.6440 hc         1 A1B       0.035033
     34 H2         -48.1280   -34.6140     0.8580 hc         1 A1B       0.035033
     35 H4         -48.1490   -33.6330    -0.6050 hc         1 A1B       0.035033
     36 H16        -50.0630   -30.4700     2.3210 ha         1 A1B       0.130000
     37 H17        -50.0350   -29.9600     6.5830 ha         1 A1B       0.137000
     38 H5         -45.6090   -34.5400     0.8650 hc         1 A1B       0.045200
     39 H6         -45.6360   -33.5680    -0.5950 hc         1 A1B       0.045200
     40 H9         -44.9090   -30.4680     0.0310 h1         1 A1B       0.043700
     41 H10        -43.8230   -31.8340    -0.2090 h1         1 A1B       0.043700
     42 H1         -42.2590   -30.4150     0.8510 hc         1 A1B       0.071700
     43 H14        -42.9830   -28.3400     6.4890 h5         1 A1B       0.046100
     44 H18        -47.5190   -29.2320     7.5330 hn         1 A1B       0.369000
     45 F1         -51.4450   -30.5700     4.4950 f          1 A1B      -0.179000
@<TRIPOS>BOND
     1     1     3 1   
     2     1    18 1   
     3     1    25 1   
     4     2    15 1   
     5     2    20 1   
     6     2    26 1   
     7     2    27 1   
     8     3    17 1   
     9     3    28 1   
    10     3    29 1   
    11     4     9 ar  
    12     4    22 ar  
    13     4    23 1   
    14     5    10 ar  
    15     5    11 ar  
    16     5    30 1   
    17     6    11 ar  
    18     6    12 ar  
    19     6    45 1   
    20     7    14 1   
    21     7    17 1   
    22     7    31 1   
    23     7    32 1   
    24     8    15 1   
    25     8    33 1   
    26     8    34 1   
    27     8    35 1   
    28     9    10 1   
    29     9    18 ar  
    30    10    13 ar  
    31    11    36 1   
    32    12    13 ar  
    33    12    37 1   
    34    13    23 1   
    35    14    20 1   
    36    14    24 2   
    37    15    38 1   
    38    15    39 1   
    39    16    17 1   
    40    16    20 1   
    41    16    40 1   
    42    16    41 1   
    43    17    42 1   
    44    18    21 ar  
    45    19    21 ar  
    46    19    22 ar  
    47    19    43 1   
    48    23    44 1   
@<TRIPOS>SUBSTRUCTURE
     1 A1B         1 TEMP              0 ****  ****    0 ROOT
