@<TRIPOS>MOLECULE
A1B
   42    44     1     0     0
SMALL
abcg2


@<TRIPOS>ATOM
      1 N2         -46.2690   -31.5100     6.6020 nc         1 A1B      -0.733000
      2 C3         -47.1630   -30.5930     6.3610 cd         1 A1B       0.567300
      3 C6         -44.5300   -32.0700     2.4270 c          1 A1B       0.638100
      4 C9         -46.8330   -33.9250     3.3690 ca         1 A1B      -0.081000
      5 C12        -48.7850   -31.9660     3.4180 ca         1 A1B       0.111000
      6 C14        -45.7720   -32.1210     0.1370 cy         1 A1B      -0.072900
      7 C1         -50.5730   -29.8110     7.6100 c3         1 A1B      -0.172100
      8 C10        -47.8680   -34.0090     4.2820 ca         1 A1B      -0.085000
      9 C11        -48.8470   -33.0270     4.3130 ca         1 A1B       0.118000
     10 C13        -47.7440   -31.8860     2.5050 ca         1 A1B      -0.096000
     11 C15        -44.7910   -33.1710    -0.4090 cy         1 A1B      -0.090400
     12 C16        -45.0310   -34.0060     0.8590 cy         1 A1B      -0.072900
     13 C2         -49.3110   -29.6030     6.8330 c          1 A1B       0.608100
     14 C4         -45.1760   -31.3270     5.8280 cc         1 A1B       0.473900
     15 C5         -45.2420   -30.2570     4.9910 cd         1 A1B      -0.584500
     16 C7         -45.5760   -32.7350     1.5450 cy         1 A1B      -0.117700
     17 C8         -46.7610   -32.8640     2.4700 ca         1 A1B      -0.069300
     18 N1         -48.3560   -30.5720     7.0140 ns         1 A1B      -0.471400
     19 N3         -44.5640   -30.6910     2.4370 ns         1 A1B      -0.567300
     20 O1         -49.1030   -28.6750     6.0790 o          1 A1B      -0.556100
     21 O2         -44.3950   -28.4170     3.4040 o          1 A1B      -0.522000
     22 O3         -42.7790   -30.1890     4.1840 o          1 A1B      -0.522000
     23 O4         -43.8030   -32.6990     3.1570 o          1 A1B      -0.534100
     24 S1         -44.1020   -29.7840     3.7790 sy         1 A1B       1.239300
     25 S2         -46.7410   -29.4120     5.1720 ss         1 A1B       0.183600
     26 CL1        -50.1260   -33.1380     5.4600 cl         1 A1B      -0.183000
     27 CL2        -49.9830   -30.7330     3.4380 cl         1 A1B      -0.163000
     28 H6         -46.0750   -34.6980     3.3640 ha         1 A1B       0.137000
     29 H9         -45.5370   -31.0690    -0.0280 hc         1 A1B       0.063950
     30 H10        -46.7900   -32.2980    -0.2120 hc         1 A1B       0.063950
     31 H2         -51.2270   -28.9520     7.5020 hc         1 A1B       0.074033
     32 H3         -51.0890   -30.6980     7.2390 hc         1 A1B       0.074033
     33 H1         -50.3620   -29.9740     8.6670 hc         1 A1B       0.074033
     34 H7         -47.9150   -34.8360     4.9760 ha         1 A1B       0.139000
     35 H8         -47.7140   -31.0460     1.8210 ha         1 A1B       0.132000
     36 H12        -45.0380   -33.6310    -1.3640 hc         1 A1B       0.060700
     37 H11        -43.7720   -32.7870    -0.4570 hc         1 A1B       0.060700
     38 H14        -45.8280   -34.7360     0.7170 hc         1 A1B       0.063950
     39 H13        -44.1800   -34.5030     1.3220 hc         1 A1B       0.063950
     40 H5         -44.3390   -32.0050     5.9110 h4         1 A1B       0.066100
     41 H4         -48.5200   -31.3280     7.6660 hn         1 A1B       0.347500
     42 H15        -45.2230   -30.2090     1.8350 hn         1 A1B       0.336500
@<TRIPOS>BOND
     1     1     2 2   
     2     1    14 1   
     3     2    18 1   
     4     2    25 1   
     5     3    16 1   
     6     3    19 1   
     7     3    23 2   
     8     4     8 ar  
     9     4    17 ar  
    10     4    28 1   
    11     5     9 ar  
    12     5    10 ar  
    13     5    27 1   
    14     6    11 1   
    15     6    16 1   
    16     6    29 1   
    17     6    30 1   
    18     7    13 1   
    19     7    31 1   
    20     7    32 1   
    21     7    33 1   
    22     8     9 ar  
    23     8    34 1   
    24     9    26 1   
    25    10    17 ar  
    26    10    35 1   
    27    11    12 1   
    28    11    36 1   
    29    11    37 1   
    30    12    16 1   
    31    12    38 1   
    32    12    39 1   
    33    13    18 1   
    34    13    20 2   
    35    14    15 2   
    36    14    40 1   
    37    15    24 1   
    38    15    25 1   
    39    16    17 1   
    40    18    41 1   
    41    19    24 1   
    42    19    42 1   
    43    21    24 2   
    44    22    24 2   
@<TRIPOS>SUBSTRUCTURE
     1 A1B         1 TEMP              0 ****  ****    0 ROOT
