@<TRIPOS>MOLECULE
A1B
   35    37     1     0     0
SMALL
abcg2


@<TRIPOS>ATOM
      1 N2         -45.3110   -29.1420     2.8260 nu         1 A1B      -0.937100
      2 C3         -44.0380   -31.4950     0.2020 c6         1 A1B      -0.072400
      3 C6         -44.1120   -28.8110     0.7460 c6         1 A1B      -0.090400
      4 C9         -47.1560   -28.5240     5.7210 ca         1 A1B       0.167900
      5 C12        -49.9520   -30.1410     2.5550 cc         1 A1B      -0.146400
      6 C10        -48.6850   -29.2860     4.2850 ca         1 A1B       0.160800
      7 C11        -47.7060   -29.4350     3.2970 ca         1 A1B      -0.318000
      8 C13        -49.9780   -29.6980     3.8320 cd         1 A1B      -0.294800
      9 C2         -45.0270   -31.1500     1.3230 c6         1 A1B      -0.168700
     10 C4         -42.6710   -30.7930     0.2610 c6         1 A1B      -0.079400
     11 C5         -42.7430   -29.4370     0.9680 c6         1 A1B      -0.078400
     12 C7         -45.2240   -29.5960     1.4540 c6         1 A1B       0.262500
     13 C8         -46.3790   -29.0860     3.6340 ca         1 A1B       0.448900
     14 N3         -46.1450   -28.6320     4.8690 nb         1 A1B      -0.289000
     15 N4         -48.4190   -28.8190     5.5180 nb         1 A1B      -0.190000
     16 S1         -48.3890   -30.0780     1.8420 ss         1 A1B       0.076400
     17 H13        -44.4470   -28.8780     3.2780 hn         1 A1B       0.505000
     18 H6         -44.5290   -31.2140    -0.7320 hc         1 A1B       0.048700
     19 H5         -43.9110   -32.5780     0.1470 hc         1 A1B       0.048700
     20 H11        -44.1420   -27.7760     1.0900 hc         1 A1B       0.057700
     21 H12        -44.3280   -28.7820    -0.3250 hc         1 A1B       0.057700
     22 H14        -46.8970   -28.1470     6.7060 h5         1 A1B       0.043100
     23 H15        -50.7830   -30.5070     1.9710 h4         1 A1B       0.217000
     24 H16        -50.8660   -29.6590     4.4470 ha         1 A1B       0.218000
     25 H1         -45.9900   -31.5670     1.0210 hc         1 A1B       0.083700
     26 H8         -42.3240   -30.6480    -0.7640 hc         1 A1B       0.041200
     27 H7         -41.9110   -31.4260     0.7270 hc         1 A1B       0.041200
     28 H9         -42.5550   -29.5480     2.0400 hc         1 A1B       0.045700
     29 H10        -41.9590   -28.7760     0.5970 hc         1 A1B       0.045700
     30 H2         -46.1550   -29.3310     0.9530 h1         1 A1B       0.065700
     31 H3         -43.3060   -32.4900     3.9080 hn         1 A1B       0.313000
     32 H4         -42.7200   -31.8800     2.4200 hn         1 A1B       0.313000
     33 C1         -44.7730   -31.8010     2.6760 c          1 A1B       0.608100
     34 N1         -43.4990   -32.0270     3.0350 nt         1 A1B      -0.608000
     35 O1         -45.7100   -32.0910     3.4070 o          1 A1B      -0.597100
@<TRIPOS>BOND
     1     1    12 1   
     2     1    13 1   
     3     1    17 1   
     4     2     9 1   
     5     2    10 1   
     6     2    18 1   
     7     2    19 1   
     8     3    11 1   
     9     3    12 1   
    10     3    20 1   
    11     3    21 1   
    12     4    14 ar  
    13     4    15 ar  
    14     4    22 1   
    15     5     8 2   
    16     5    16 1   
    17     5    23 1   
    18     6     7 ar  
    19     6     8 1   
    20     6    15 ar  
    21     7    13 ar  
    22     7    16 1   
    23     8    24 1   
    24     9    12 1   
    25     9    25 1   
    26     9    33 1   
    27    10    11 1   
    28    10    26 1   
    29    10    27 1   
    30    11    28 1   
    31    11    29 1   
    32    12    30 1   
    33    13    14 ar  
    34    31    34 1   
    35    32    34 1   
    36    33    34 1   
    37    33    35 2   
@<TRIPOS>SUBSTRUCTURE
     1 A1B         1 TEMP              0 ****  ****    0 ROOT
