@<TRIPOS>MOLECULE
A1B
   40    43     1     0     0
SMALL
abcg2


@<TRIPOS>ATOM
      1 C3         -43.8920   -31.9680     1.7090 c3         1 A1B       0.127600
      2 C9         -47.6460   -29.2040     4.6810 cp         1 A1B      -0.035000
      3 C12        -50.3770   -28.8670     4.9930 ca         1 A1B      -0.000900
      4 C14        -48.4580   -29.0880     3.5550 ca         1 A1B      -0.075000
      5 C17        -46.0600   -29.4010     6.3060 ca         1 A1B       0.208500
      6 C19        -43.8740   -29.6380     6.1170 ca         1 A1B       0.202900
      7 C1         -45.5330   -32.9330     0.3570 c3         1 A1B       0.146900
      8 C10        -48.2440   -29.1390     5.9590 ca         1 A1B      -0.021200
      9 C11        -49.6090   -28.9730     6.1390 ca         1 A1B      -0.099000
     10 C13        -49.8230   -28.9190     3.7120 ca         1 A1B      -0.105000
     11 C21        -44.0380   -28.5870     0.7800 cx         1 A1B      -0.117900
     12 C22        -43.1850   -28.1370     1.9220 cx         1 A1B      -0.117900
     13 C4         -43.0440   -30.7140     1.8830 c3         1 A1B       0.208300
     14 C5         -43.8970   -29.4580     1.9870 cx         1 A1B       0.147200
     15 C7         -45.0680   -29.5140     4.1520 ca         1 A1B       0.450900
     16 C8         -46.2390   -29.3790     4.9170 cp         1 A1B      -0.265000
     17 N16        -47.2640   -29.2600     6.9130 na         1 A1B      -0.320300
     18 N18        -44.8970   -29.5260     6.9410 nb         1 A1B      -0.241000
     19 N20        -43.8950   -29.6440     4.7880 nb         1 A1B      -0.323000
     20 N6         -45.0700   -29.5230     2.8110 nu         1 A1B      -0.892100
     21 O2         -44.7250   -31.8100     0.5910 os         1 A1B      -0.461000
     22 O23        -42.1770   -30.8810     2.9790 oh         1 A1B      -0.738000
     23 H3A        -44.4820   -32.1500     2.6200 h1         1 A1B       0.033200
     24 H3B        -43.2260   -32.8340     1.5850 h1         1 A1B       0.033200
     25 H14        -48.0520   -29.1200     2.5530 ha         1 A1B       0.113000
     26 H19        -42.8950   -29.7450     6.5700 h5         1 A1B       0.051100
     27 H1A        -46.1380   -32.7370    -0.5270 h1         1 A1B       0.028700
     28 H1C        -44.9400   -33.8380     0.1760 h1         1 A1B       0.028700
     29 H1B        -46.2060   -33.1380     1.1980 h1         1 A1B       0.028700
     30 H11        -50.0420   -28.9280     7.1300 ha         1 A1B       0.135000
     31 H13        -50.4520   -28.8280     2.8370 ha         1 A1B       0.131000
     32 H21A       -44.9900   -28.0910     0.6300 hc         1 A1B       0.082700
     33 H21B       -43.5570   -28.9120    -0.1330 hc         1 A1B       0.082700
     34 H22B       -42.1090   -28.1530     1.8030 hc         1 A1B       0.082700
     35 H22A       -43.5540   -27.3370     2.5500 hc         1 A1B       0.082700
     36 H4         -42.4170   -30.5980     0.9910 h1         1 A1B       0.070700
     37 H16        -47.4080   -29.2400     7.9110 hn         1 A1B       0.370000
     38 H6         -45.9570   -29.5610     2.3370 hn         1 A1B       0.509000
     39 H23        -42.6140   -30.4790     3.7550 ho         1 A1B       0.549000
     40 BR15       -52.2440   -28.6410     5.1690 br         1 A1B      -0.094100
@<TRIPOS>BOND
     1     1    13 1   
     2     1    21 1   
     3     1    23 1   
     4     1    24 1   
     5     2     4 ar  
     6     2     8 ar  
     7     2    16 1   
     8     3     9 ar  
     9     3    10 ar  
    10     3    40 1   
    11     4    10 ar  
    12     4    25 1   
    13     5    16 ar  
    14     5    17 1   
    15     5    18 ar  
    16     6    18 ar  
    17     6    19 ar  
    18     6    26 1   
    19     7    21 1   
    20     7    27 1   
    21     7    28 1   
    22     7    29 1   
    23     8     9 ar  
    24     8    17 1   
    25     9    30 1   
    26    10    31 1   
    27    11    12 1   
    28    11    14 1   
    29    11    32 1   
    30    11    33 1   
    31    12    14 1   
    32    12    34 1   
    33    12    35 1   
    34    13    14 1   
    35    13    22 1   
    36    13    36 1   
    37    14    20 1   
    38    15    16 ar  
    39    15    19 ar  
    40    15    20 1   
    41    17    37 1   
    42    20    38 1   
    43    22    39 1   
@<TRIPOS>SUBSTRUCTURE
     1 A1B         1 TEMP              0 ****  ****    0 ROOT
