@<TRIPOS>MOLECULE
A1B
   47    49     1     0     0
SMALL
abcg2


@<TRIPOS>ATOM
      1 C10         23.6860   -11.7110   -18.7410 c          1 A1B       0.593100
      2 C13         20.3250   -12.6050   -19.8370 ca         1 A1B      -0.155000
      3 C15         19.7790   -14.9410   -19.9050 ca         1 A1B      -0.110000
      4 C17         22.0630   -14.2180   -19.4300 ca         1 A1B      -0.143000
      5 C21         16.1770   -12.0380   -20.4160 cc         1 A1B      -0.221000
      6 C22         15.9140   -13.3430   -20.7340 cd         1 A1B       0.192900
      7 C26         22.4790    -9.8790   -16.6890 c3         1 A1B       0.091300
      8 C01         19.4840    -6.0420   -17.1440 ca         1 A1B       0.327900
      9 C03         20.2180    -7.8520   -18.3350 ca         1 A1B       0.322500
     10 C04         21.5540    -7.5500   -18.0500 ca         1 A1B      -0.165600
     11 C05         21.8240    -6.4280   -17.2760 ca         1 A1B      -0.071000
     12 C06         20.7740    -5.6560   -16.8110 ca         1 A1B      -0.193000
     13 C07         22.7250    -8.3190   -18.5920 c          1 A1B       0.664700
     14 C09         24.1570   -10.2760   -18.4570 c3         1 A1B       0.023700
     15 C12         21.6530   -12.8890   -19.5260 ca         1 A1B      -0.006000
     16 C14         19.3840   -13.6060   -20.0020 ca         1 A1B      -0.078500
     17 C16         21.1080   -15.2080   -19.6340 ca         1 A1B       0.129000
     18 C19         17.9910   -13.2510   -20.2520 cc         1 A1B       0.435000
     19 C25         25.3680   -10.2470   -17.5370 c3         1 A1B      -0.090100
     20 N02         19.2150    -7.1100   -17.8810 nb         1 A1B      -0.636000
     21 N08         23.0520    -9.4720   -17.9580 n          1 A1B      -0.409800
     22 N11         22.4620   -11.7730   -19.3190 ns         1 A1B      -0.140000
     23 N20         17.5010   -11.9940   -20.1120 na         1 A1B      -0.266500
     24 N23         17.0480   -14.0870   -20.6270 nd         1 A1B      -0.692000
     25 O24         24.3750   -12.6790   -18.4830 o          1 A1B      -0.615100
     26 O27         23.3720    -7.8490   -19.5140 o          1 A1B      -0.597100
     27 O29         20.7760    -9.4560   -19.9510 o          1 A1B      -0.709000
     28 O30         18.7120    -9.5140   -19.0970 o          1 A1B      -0.709000
     29 CL18        21.6180   -16.8640   -19.5290 cl         1 A1B      -0.239000
     30 H131        20.0450   -11.5690   -19.9540 ha         1 A1B       0.171000
     31 H151        19.0640   -15.7410   -20.0330 ha         1 A1B       0.142000
     32 H171        23.0830   -14.4840   -19.2080 ha         1 A1B       0.150000
     33 H211        15.5480   -11.1640   -20.3780 h4         1 A1B       0.154000
     34 H221        14.9720   -13.7770   -21.0320 h4         1 A1B       0.018100
     35 H261        21.5060    -9.4270   -16.5280 h1         1 A1B       0.039700
     36 H262        22.3360   -10.9590   -16.6640 h1         1 A1B       0.039700
     37 H263        23.1220    -9.6020   -15.8520 h1         1 A1B       0.039700
     38 H011        18.6340    -5.4630   -16.8010 h4         1 A1B       0.002100
     39 H051        22.8460    -6.1640   -17.0320 ha         1 A1B       0.108000
     40 H061        20.9480    -4.7780   -16.2050 ha         1 A1B       0.106000
     41 H091        24.4470    -9.8500   -19.4210 h1         1 A1B       0.104700
     42 H252        25.6670    -9.2140   -17.3640 hc         1 A1B       0.041033
     43 H251        25.1700   -10.7120   -16.5720 hc         1 A1B       0.041033
     44 H253        26.2100   -10.7660   -17.9910 hc         1 A1B       0.041033
     45 H111        21.9820   -10.8870   -19.4820 hn         1 A1B       0.221000
     46 H201        17.9990   -11.1520   -19.7990 hn         1 A1B       0.423000
     47 C28         19.8590    -9.0510   -19.2040 c          1 A1B       0.625500
@<TRIPOS>BOND
     1     1    14 1   
     2     1    22 1   
     3     1    25 2   
     4     2    15 ar  
     5     2    16 ar  
     6     2    30 1   
     7     3    16 ar  
     8     3    17 ar  
     9     3    31 1   
    10     4    15 ar  
    11     4    17 ar  
    12     4    32 1   
    13     5     6 2   
    14     5    23 1   
    15     5    33 1   
    16     6    24 1   
    17     6    34 1   
    18     7    21 1   
    19     7    35 1   
    20     7    36 1   
    21     7    37 1   
    22     8    12 ar  
    23     8    20 ar  
    24     8    38 1   
    25     9    10 ar  
    26     9    20 ar  
    27     9    47 1   
    28    10    11 ar  
    29    10    13 1   
    30    11    12 ar  
    31    11    39 1   
    32    12    40 1   
    33    13    21 1   
    34    13    26 2   
    35    14    19 1   
    36    14    21 1   
    37    14    41 1   
    38    15    22 1   
    39    16    18 1   
    40    17    29 1   
    41    18    23 1   
    42    18    24 2   
    43    19    42 1   
    44    19    43 1   
    45    19    44 1   
    46    22    45 1   
    47    23    46 1   
    48    27    47 1   
    49    28    47 1   
@<TRIPOS>SUBSTRUCTURE
     1 A1B         1 TEMP              0 ****  ****    0 ROOT
