@<TRIPOS>MOLECULE
A1B
   43    45     1     0     0
SMALL
abcg2


@<TRIPOS>ATOM
      1 C4          13.9300    16.9340   -58.1760 ca         1 A1B      -0.159000
      2 C5          14.0160    16.4300   -59.4640 ca         1 A1B       0.339900
      3 C7          15.0900    14.5310   -58.7490 ca         1 A1B       0.421500
      4 C8          15.6830    13.2570   -59.1950 cc         1 A1B      -0.169500
      5 C17         18.8970    10.6020   -64.4410 ca         1 A1B      -0.125000
      6 C20         19.4430    12.8200   -66.0330 ca         1 A1B       0.276000
      7 C21         18.7700    12.9760   -64.8350 ca         1 A1B      -0.170000
      8 C26         17.4160    15.3900   -66.9410 c3         1 A1B      -0.343100
      9 C2          15.0840    14.9580   -57.4130 ca         1 A1B      -0.105300
     10 C3          14.4820    16.1860   -57.1520 ca         1 A1B      -0.078000
     11 N6          14.5810    15.2660   -59.7390 nb         1 A1B      -0.677000
     12 C9          15.6600    12.0610   -58.5260 cd         1 A1B      -0.243000
     13 S10         16.4030    10.8020   -59.3970 ss         1 A1B       0.349000
     14 C11         16.7740    11.8610   -60.7010 cd         1 A1B      -0.331600
     15 C12         16.3230    13.1270   -60.4580 cc         1 A1B      -0.052000
     16 O14         17.8180    10.0950   -61.8150 o          1 A1B      -0.581100
     17 N15         17.7780    12.1230   -62.8590 ns         1 A1B      -0.134000
     18 C16         18.4790    11.8690   -64.0360 ca         1 A1B       0.006000
     19 C18         19.5890    10.4840   -65.6360 ca         1 A1B       0.161000
     20 C19         19.8630    11.5630   -66.4540 ca         1 A1B      -0.140000
     21 S23         18.5520    14.4560   -67.9300 s6         1 A1B       1.173100
     22 O24         17.8460    13.3060   -68.4710 o          1 A1B      -0.531500
     23 O25         19.2470    15.3530   -68.8390 o          1 A1B      -0.531500
     24 CL27        20.1070     8.9070   -66.1290 cl         1 A1B      -0.184000
     25 H1          13.4580    17.8890   -57.9860 ha         1 A1B       0.126000
     26 H2          13.6180    16.9870   -60.3050 h4         1 A1B       0.021100
     27 H3          18.6970     9.7260   -63.8460 ha         1 A1B       0.169000
     28 H4          18.4880    13.9690   -64.5090 ha         1 A1B       0.123000
     29 H5          17.9480    16.2040   -66.4550 h1         1 A1B       0.105367
     30 H6          16.6550    15.7840   -67.6130 h1         1 A1B       0.105367
     31 H7          16.9480    14.7430   -66.2040 h1         1 A1B       0.105367
     32 H8          16.6450    13.7200   -56.5790 hc         1 A1B       0.046700
     33 H9          15.9060    14.8470   -55.4430 hc         1 A1B       0.046700
     34 H10         15.0470    13.3960   -55.9240 hc         1 A1B       0.046700
     35 H11         14.4580    16.5590   -56.1350 ha         1 A1B       0.119000
     36 H12         15.2120    11.8460   -57.5690 h4         1 A1B       0.155000
     37 H13         16.4390    13.9630   -61.1340 ha         1 A1B       0.142000
     38 H14         17.4800    13.0800   -62.7510 hn         1 A1B       0.160000
     39 H15         20.3920    11.4420   -67.3900 ha         1 A1B       0.139000
     40 H16         20.6250    13.9780   -67.2570 hn         1 A1B       0.496000
     41 C13         17.5030    11.2730   -61.8360 c          1 A1B       0.656700
     42 C1          15.7060    14.1880   -56.2860 c3         1 A1B      -0.043800
     43 N22         19.7100    13.9750   -66.8140 nu         1 A1B      -0.888100
@<TRIPOS>BOND
     1     1     2 ar  
     2     1    10 ar  
     3     1    25 1   
     4     2    11 ar  
     5     2    26 1   
     6     3     4 1   
     7     3     9 ar  
     8     3    11 ar  
     9     4    12 2   
    10     4    15 1   
    11     5    18 ar  
    12     5    19 ar  
    13     5    27 1   
    14     6     7 ar  
    15     6    20 ar  
    16     6    43 1   
    17     7    18 ar  
    18     7    28 1   
    19     8    21 1   
    20     8    29 1   
    21     8    30 1   
    22     8    31 1   
    23     9    10 ar  
    24     9    42 1   
    25    10    35 1   
    26    12    13 1   
    27    12    36 1   
    28    13    14 1   
    29    14    15 2   
    30    14    41 1   
    31    15    37 1   
    32    16    41 2   
    33    17    18 1   
    34    17    38 1   
    35    17    41 1   
    36    19    20 ar  
    37    19    24 1   
    38    20    39 1   
    39    21    22 2   
    40    21    23 2   
    41    21    43 1   
    42    32    42 1   
    43    33    42 1   
    44    34    42 1   
    45    40    43 1   
@<TRIPOS>SUBSTRUCTURE
     1 A1B         1 TEMP              0 ****  ****    0 ROOT
