@<TRIPOS>MOLECULE
A1B
   40    41     1     0     0
SMALL
abcg2


@<TRIPOS>ATOM
      1 C1          13.2600    14.2370   -60.4480 c3         1 A1B      -0.113100
      2 C2          14.6760    14.2940   -59.9020 c3         1 A1B       0.080600
      3 C8          17.3750    11.1610   -62.3900 c          1 A1B       0.544600
      4 C11         18.3630    11.8210   -64.5650 ca         1 A1B      -0.003000
      5 C12         18.7680    10.5630   -65.0150 ca         1 A1B      -0.126000
      6 C13         19.5280    10.4600   -66.1720 ca         1 A1B      -0.070000
      7 C14         19.8810    11.5780   -66.9080 ca         1 A1B      -0.141000
      8 C15         19.4740    12.8300   -66.4630 ca         1 A1B       0.260000
      9 C16         18.7290    12.9520   -65.3000 ca         1 A1B      -0.158000
     10 C21         17.6570    15.5250   -67.5360 c3         1 A1B      -0.341100
     11 C22         14.7940    11.8470   -58.0790 c3         1 A1B      -0.029800
     12 N3          15.4170    13.0760   -60.1700 na         1 A1B       0.147800
     13 C4          15.4570    11.9570   -59.4040 cc         1 A1B      -0.148300
     14 C5          16.2050    11.0420   -60.1080 cd         1 A1B      -0.163000
     15 C6          16.5610    11.7100   -61.2890 cd         1 A1B       0.187500
     16 N7          16.0720    12.9380   -61.3100 nc         1 A1B      -0.522800
     17 O9          17.7860    10.0140   -62.3450 o          1 A1B      -0.576100
     18 N10         17.6050    12.0280   -63.4110 ns         1 A1B      -0.139000
     19 N17         19.8450    14.0100   -67.1680 nu         1 A1B      -0.890100
     20 S18         18.8520    14.5470   -68.4060 s6         1 A1B       1.172100
     21 O19         19.6860    15.4130   -69.2250 o          1 A1B      -0.536500
     22 O20         18.1570    13.4360   -69.0390 o          1 A1B      -0.536500
     23 H1          12.7490    15.1770   -60.2390 hc         1 A1B       0.051033
     24 H2          13.2620    14.0840   -61.5260 hc         1 A1B       0.051033
     25 H3          12.6870    13.4330   -59.9860 hc         1 A1B       0.051033
     26 H4          15.2340    15.1150   -60.3480 h1         1 A1B       0.066700
     27 H5          14.6700    14.4540   -58.8250 h1         1 A1B       0.066700
     28 H6          18.5020     9.6690   -64.4780 ha         1 A1B       0.151000
     29 H7          19.8370     9.4790   -66.5070 ha         1 A1B       0.122000
     30 H8          20.4680    11.4840   -67.8120 ha         1 A1B       0.122000
     31 H9          18.4510    13.9400   -64.9490 ha         1 A1B       0.120000
     32 H10         18.1680    16.3220   -67.0030 h1         1 A1B       0.104367
     33 H11         16.9720    15.9410   -68.2740 h1         1 A1B       0.104367
     34 H12         17.1060    14.8950   -66.8410 h1         1 A1B       0.104367
     35 H13         15.1630    12.5950   -57.3760 hc         1 A1B       0.053700
     36 H14         13.7120    11.9690   -58.1530 hc         1 A1B       0.053700
     37 H15         14.9890    10.8650   -57.6540 hc         1 A1B       0.053700
     38 H16         16.4560    10.0400   -59.8040 ha         1 A1B       0.163000
     39 H17         17.2420    12.9630   -63.2800 hn         1 A1B       0.172000
     40 H18         20.8090    14.0100   -67.4900 hn         1 A1B       0.493000
@<TRIPOS>BOND
     1     1     2 1   
     2     1    23 1   
     3     1    24 1   
     4     1    25 1   
     5     2    12 1   
     6     2    26 1   
     7     2    27 1   
     8     3    15 1   
     9     3    17 2   
    10     3    18 1   
    11     4     5 ar  
    12     4     9 ar  
    13     4    18 1   
    14     5     6 ar  
    15     5    28 1   
    16     6     7 ar  
    17     6    29 1   
    18     7     8 ar  
    19     7    30 1   
    20     8     9 ar  
    21     8    19 1   
    22     9    31 1   
    23    10    20 1   
    24    10    32 1   
    25    10    33 1   
    26    10    34 1   
    27    11    13 1   
    28    11    35 1   
    29    11    36 1   
    30    11    37 1   
    31    12    13 1   
    32    12    16 1   
    33    13    14 2   
    34    14    15 1   
    35    14    38 1   
    36    15    16 2   
    37    18    39 1   
    38    19    20 1   
    39    19    40 1   
    40    20    21 2   
    41    20    22 2   
@<TRIPOS>SUBSTRUCTURE
     1 A1B         1 TEMP              0 ****  ****    0 ROOT
