@<TRIPOS>MOLECULE
A1B
   41    43     1     0     0
SMALL
abcg2


@<TRIPOS>ATOM
      1 C6          19.0730    13.6580   -65.6780 ca         1 A1B       0.262000
      2 C7          19.6510    12.4400   -66.0180 ca         1 A1B      -0.118000
      3 C8          19.4600    11.3730   -65.1580 ca         1 A1B       0.019100
      4 C10         18.7020    11.4670   -63.9990 ca         1 A1B      -0.104000
      5 C13         17.1370    12.1060   -61.4790 c          1 A1B       0.654700
      6 C15         16.3950    12.7040   -60.3570 cc         1 A1B      -0.326600
      7 C17         15.3270    14.1290   -58.8590 cd         1 A1B      -0.061000
      8 C20         14.8020    15.4000   -58.3420 ca         1 A1B      -0.018000
      9 C21         14.7760    15.6580   -56.9700 ca         1 A1B      -0.099500
     10 C22         14.2740    16.8550   -56.4840 ca         1 A1B      -0.108500
     11 C24         13.8210    17.5770   -58.7270 ca         1 A1B      -0.108500
     12 C26         18.3230    13.7880   -64.5240 ca         1 A1B      -0.154000
     13 C1          16.7800    15.6590   -67.0100 c3         1 A1B      -0.343100
     14 S2          18.2700    15.0940   -67.7870 s6         1 A1B       1.173100
     15 O3          18.8960    16.1910   -68.5070 o          1 A1B      -0.531500
     16 O4          17.9670    13.8640   -68.5020 o          1 A1B      -0.531500
     17 N5          19.2790    14.8160   -66.4770 nu         1 A1B      -0.891100
     18 BR9         20.2640     9.7150   -65.5720 br         1 A1B      -0.075100
     19 C11         18.1270    12.6960   -63.6770 ca         1 A1B      -0.005000
     20 O14         17.4920    10.9410   -61.4280 o          1 A1B      -0.578100
     21 C16         15.9930    13.9860   -60.1070 cd         1 A1B      -0.080000
     22 C18         15.2460    12.9270   -58.2040 cc         1 A1B      -0.250000
     23 S19         15.9640    11.6510   -59.0680 ss         1 A1B       0.356000
     24 C23         13.7960    17.8210   -57.3600 ca         1 A1B      -0.104000
     25 C25         14.3180    16.3770   -59.2130 ca         1 A1B      -0.099500
     26 H1          20.2430    12.3480   -66.9180 ha         1 A1B       0.142000
     27 H2          18.5730    10.6100   -63.3600 ha         1 A1B       0.170000
     28 H3          17.0070    13.8710   -62.4630 hn         1 A1B       0.157000
     29 H4          15.1670    14.9250   -56.2750 ha         1 A1B       0.111500
     30 H5          14.2650    17.0380   -55.4170 ha         1 A1B       0.114500
     31 H6          13.4470    18.3200   -59.4190 ha         1 A1B       0.114500
     32 H7          17.9140    14.7570   -64.2650 ha         1 A1B       0.124000
     33 H8          16.9960    16.5390   -66.4110 h1         1 A1B       0.105367
     34 H9          16.0800    15.9050   -67.8070 h1         1 A1B       0.105367
     35 H10         16.3600    14.8680   -66.3920 h1         1 A1B       0.105367
     36 H11         20.2440    14.9490   -66.7670 hn         1 A1B       0.495000
     37 H12         16.1850    14.8230   -60.7650 ha         1 A1B       0.129000
     38 H13         14.7770    12.7330   -57.2500 h4         1 A1B       0.157000
     39 H14         13.4080    18.7570   -56.9810 ha         1 A1B       0.115000
     40 H15         14.3120    16.1960   -60.2810 ha         1 A1B       0.111500
     41 N12         17.3750    12.9340   -62.5290 ns         1 A1B      -0.135000
@<TRIPOS>BOND
     1     1     2 ar  
     2     1    12 ar  
     3     1    17 1   
     4     2     3 ar  
     5     2    26 1   
     6     3     4 ar  
     7     3    18 1   
     8     4    19 ar  
     9     4    27 1   
    10     5     6 1   
    11     5    20 2   
    12     5    41 1   
    13     6    21 2   
    14     6    23 1   
    15     7     8 1   
    16     7    21 1   
    17     7    22 2   
    18     8     9 ar  
    19     8    25 ar  
    20     9    10 ar  
    21     9    29 1   
    22    10    24 ar  
    23    10    30 1   
    24    11    24 ar  
    25    11    25 ar  
    26    11    31 1   
    27    12    19 ar  
    28    12    32 1   
    29    13    14 1   
    30    13    33 1   
    31    13    34 1   
    32    13    35 1   
    33    14    15 2   
    34    14    16 2   
    35    14    17 1   
    36    17    36 1   
    37    19    41 1   
    38    21    37 1   
    39    22    23 1   
    40    22    38 1   
    41    24    39 1   
    42    25    40 1   
    43    28    41 1   
@<TRIPOS>SUBSTRUCTURE
     1 A1B         1 TEMP              0 ****  ****    0 ROOT
