@<TRIPOS>MOLECULE
A1B
   37    40     1     0     0
SMALL
abcg2


@<TRIPOS>ATOM
      1 C6         -46.2250   -29.0550     0.7030 c6         1 A1B      -0.079400
      2 C9         -43.8190   -29.6160     2.2410 c6         1 A1B       0.231500
      3 C17        -47.8830   -29.6010     4.7220 cc         1 A1B      -0.190200
      4 C11        -45.2480   -29.5370     4.2120 ca         1 A1B       0.437900
      5 C13        -44.1040   -29.5160     6.2230 ca         1 A1B       0.192900
      6 C15        -46.2930   -29.5960     6.3490 ca         1 A1B       0.152500
      7 C16        -46.4640   -29.5770     4.9510 ca         1 A1B      -0.237800
      8 C18        -48.4630   -29.6380     5.9500 cd         1 A1B       0.086900
      9 C21        -43.4200   -31.0930     1.9820 c3         1 A1B      -0.181400
     10 C5         -46.2330   -29.8920     1.9820 c6         1 A1B       0.202500
     11 C7         -44.8770   -29.0830    -0.0050 c6         1 A1B      -0.075400
     12 C8         -43.7630   -28.7580     0.9790 c6         1 A1B      -0.080400
     13 N10        -45.1420   -29.5070     2.8550 nh         1 A1B      -0.755300
     14 N12        -44.1020   -29.5020     4.8980 nb         1 A1B      -0.298000
     15 N14        -45.1450   -29.5710     7.0240 nb         1 A1B      -0.224000
     16 N20        -47.5160   -29.6380     6.9320 na         1 A1B      -0.315400
     17 O1         -43.5710   -32.7230     3.7480 o          1 A1B      -0.548000
     18 CL19       -50.1170   -29.6760     6.3450 cl         1 A1B      -0.133000
     19 H6B        -46.4780   -28.0250     0.9680 hc         1 A1B       0.052200
     20 H6A        -47.0190   -29.4160     0.0450 hc         1 A1B       0.052200
     21 H9         -43.1090   -29.2110     2.9540 h1         1 A1B       0.103700
     22 H17        -48.4390   -29.5840     3.8030 ha         1 A1B       0.210000
     23 H13        -43.1270   -29.4850     6.6950 h5         1 A1B       0.049100
     24 H21B       -43.6040   -31.3710     0.9400 hc         1 A1B       0.068200
     25 H21A       -42.3490   -31.2020     2.1430 hc         1 A1B       0.068200
     26 H4B        -47.2110   -31.7960     1.6450 h1         1 A1B       0.050700
     27 H4A        -45.7730   -31.5990     0.6840 h1         1 A1B       0.050700
     28 H5         -47.1650   -29.6770     2.4850 h1         1 A1B       0.069700
     29 H7B        -44.7060   -30.0590    -0.4670 hc         1 A1B       0.043700
     30 H7A        -44.8740   -28.3640    -0.8260 hc         1 A1B       0.043700
     31 H8A        -42.7820   -28.8850     0.5140 hc         1 A1B       0.054200
     32 H8B        -43.8360   -27.7090     1.2790 hc         1 A1B       0.054200
     33 H20        -47.6880   -29.6610     7.9260 hn         1 A1B       0.374000
     34 H3         -45.9910   -32.7750     3.2860 hn         1 A1B       0.320500
     35 C2         -44.1400   -32.0730     2.8850 c          1 A1B       0.572000
     36 C4         -46.1910   -31.4160     1.6770 c3         1 A1B       0.087000
     37 N3         -45.4690   -32.1790     2.6630 ns         1 A1B      -0.513900
@<TRIPOS>BOND
     1     1    10 1   
     2     1    11 1   
     3     1    19 1   
     4     1    20 1   
     5     2     9 1   
     6     2    12 1   
     7     2    13 1   
     8     2    21 1   
     9     3     7 1   
    10     3     8 2   
    11     3    22 1   
    12     4     7 ar  
    13     4    13 1   
    14     4    14 ar  
    15     5    14 ar  
    16     5    15 ar  
    17     5    23 1   
    18     6     7 ar  
    19     6    15 ar  
    20     6    16 1   
    21     8    16 1   
    22     8    18 1   
    23     9    24 1   
    24     9    25 1   
    25     9    35 1   
    26    10    13 1   
    27    10    28 1   
    28    10    36 1   
    29    11    12 1   
    30    11    29 1   
    31    11    30 1   
    32    12    31 1   
    33    12    32 1   
    34    16    33 1   
    35    17    35 2   
    36    26    36 1   
    37    27    36 1   
    38    34    37 1   
    39    35    37 1   
    40    36    37 1   
@<TRIPOS>SUBSTRUCTURE
     1 A1B         1 TEMP              0 ****  ****    0 ROOT
