@<TRIPOS>MOLECULE
A1B
   61    64     1     0     0
SMALL
abcg2


@<TRIPOS>ATOM
      1 C10        152.9230   146.5870   204.7850 ca         1 A1B      -0.130000
      2 C13        154.0030   147.2180   207.8390 c3         1 A1B       0.198000
      3 C15        155.3210   147.0330   208.5750 c3         1 A1B      -0.106100
      4 C17        153.0750   148.9470   205.1900 ca         1 A1B      -0.130000
      5 C20        149.1700   150.0630   203.2110 cc         1 A1B      -0.099000
      6 C21        148.1080   150.8630   202.9290 cd         1 A1B      -0.061000
      7 C22        147.5570   151.7130   204.0100 ca         1 A1B      -0.083000
      8 C24        147.1080   153.8940   204.9550 ca         1 A1B      -0.179000
      9 C28        143.9610   153.3030   207.8630 c3         1 A1B      -0.107600
     10 C02        147.5240   150.8420   201.6180 cd         1 A1B      -0.052300
     11 C03        148.0460   149.9950   200.6810 cc         1 A1B      -0.088000
     12 C04        149.1430   149.1680   200.9890 cc         1 A1B      -0.070000
     13 C06        150.7380   147.7680   201.0480 cd         1 A1B      -0.015400
     14 C07        150.7370   148.3410   202.2980 cc         1 A1B      -0.134300
     15 C08        151.6280   148.1240   203.4320 ca         1 A1B      -0.023800
     16 C09        152.0170   146.8250   203.7640 ca         1 A1B      -0.093000
     17 C11        153.4580   147.6470   205.5120 ca         1 A1B       0.121100
     18 C14        153.2630   148.4340   208.3820 c3         1 A1B      -0.106100
     19 C16        153.1440   145.9670   207.9730 c3         1 A1B      -0.106100
     20 C18        152.1800   149.1810   204.1590 ca         1 A1B      -0.093000
     21 C23        147.6150   153.1060   203.9400 ca         1 A1B      -0.058000
     22 C25        146.5210   153.3110   206.0820 ca         1 A1B       0.161100
     23 C27        145.3970   153.6850   208.1840 c3         1 A1B       0.179300
     24 C29        145.4670   154.8020   209.2060 c3         1 A1B      -0.107600
     25 C30        146.4600   151.9210   206.1650 ca         1 A1B      -0.179000
     26 C31        146.9760   151.1430   205.1350 ca         1 A1B      -0.058000
     27 N05        149.7710   148.2730   200.2490 nd         1 A1B      -0.292600
     28 N19        149.6950   149.2450   202.2540 na         1 A1B       0.139100
     29 O12        154.4020   147.4260   206.4610 os         1 A1B      -0.380100
     30 O26        146.0710   154.1650   207.0170 os         1 A1B      -0.353100
     31 H101       153.2230   145.5720   205.0130 ha         1 A1B       0.123000
     32 H153       155.1380   146.8620   209.6360 hc         1 A1B       0.044589
     33 H151       155.8710   146.1740   208.1870 hc         1 A1B       0.044589
     34 H152       155.9520   147.9180   208.4820 hc         1 A1B       0.044589
     35 H171       153.5050   149.7810   205.7300 ha         1 A1B       0.123000
     36 H201       149.6300   150.0360   204.1880 h4         1 A1B       0.152000
     37 H241       147.1700   154.9730   204.8880 ha         1 A1B       0.124000
     38 H281       143.4670   152.9390   208.7650 hc         1 A1B       0.047533
     39 H282       143.4040   154.1690   207.5010 hc         1 A1B       0.047533
     40 H283       143.8940   152.5150   207.1130 hc         1 A1B       0.047533
     41 H011       145.5350   151.5460   202.0210 hc         1 A1B       0.048033
     42 H013       146.5860   152.7590   201.3190 hc         1 A1B       0.048033
     43 H012       145.9500   151.4670   200.3070 hc         1 A1B       0.048033
     44 H031       147.6200   149.9270   199.6890 ha         1 A1B       0.142000
     45 H061       151.4300   147.0160   200.6960 h4         1 A1B       0.227000
     46 H091       151.6010   145.9860   203.2190 ha         1 A1B       0.117500
     47 H143       153.0610   148.2920   209.4450 hc         1 A1B       0.044589
     48 H142       153.8570   149.3420   208.2730 hc         1 A1B       0.044589
     49 H141       152.3030   148.5890   207.8880 hc         1 A1B       0.044589
     50 H161       152.9350   145.7800   209.0280 hc         1 A1B       0.044589
     51 H163       152.1840   146.0670   207.4640 hc         1 A1B       0.044589
     52 H162       153.6560   145.0900   207.5740 hc         1 A1B       0.044589
     53 H181       151.9390   150.2060   203.9050 ha         1 A1B       0.117500
     54 H231       148.0750   153.5850   203.0840 ha         1 A1B       0.116500
     55 H271       145.9330   152.8160   208.5820 h1         1 A1B       0.042700
     56 H291       144.9840   154.4850   210.1290 hc         1 A1B       0.047533
     57 H292       146.5000   155.0630   209.4400 hc         1 A1B       0.047533
     58 H293       144.9540   155.6970   208.8490 hc         1 A1B       0.047533
     59 H301       146.0130   151.4210   207.0130 ha         1 A1B       0.124000
     60 H311       146.9090   150.0650   205.2150 ha         1 A1B       0.116500
     61 C01        146.3370   151.6970   201.2980 c3         1 A1B      -0.045800
@<TRIPOS>BOND
     1     1    16 ar  
     2     1    17 ar  
     3     1    31 1   
     4     2     3 1   
     5     2    18 1   
     6     2    19 1   
     7     2    29 1   
     8     3    32 1   
     9     3    33 1   
    10     3    34 1   
    11     4    17 ar  
    12     4    20 ar  
    13     4    35 1   
    14     5     6 2   
    15     5    28 1   
    16     5    36 1   
    17     6     7 1   
    18     6    10 1   
    19     7    21 ar  
    20     7    26 ar  
    21     8    21 ar  
    22     8    22 ar  
    23     8    37 1   
    24     9    23 1   
    25     9    38 1   
    26     9    39 1   
    27     9    40 1   
    28    10    11 2   
    29    10    61 1   
    30    11    12 1   
    31    11    44 1   
    32    12    27 2   
    33    12    28 1   
    34    13    14 2   
    35    13    27 1   
    36    13    45 1   
    37    14    15 1   
    38    14    28 1   
    39    15    16 ar  
    40    15    20 ar  
    41    16    46 1   
    42    17    29 1   
    43    18    47 1   
    44    18    48 1   
    45    18    49 1   
    46    19    50 1   
    47    19    51 1   
    48    19    52 1   
    49    20    53 1   
    50    21    54 1   
    51    22    25 ar  
    52    22    30 1   
    53    23    24 1   
    54    23    30 1   
    55    23    55 1   
    56    24    56 1   
    57    24    57 1   
    58    24    58 1   
    59    25    26 ar  
    60    25    59 1   
    61    26    60 1   
    62    41    61 1   
    63    42    61 1   
    64    43    61 1   
@<TRIPOS>SUBSTRUCTURE
     1 A1B         1 TEMP              0 ****  ****    0 ROOT
