@<TRIPOS>MOLECULE
A1B
   34    37     1     0     0
SMALL
abcg2


@<TRIPOS>ATOM
      1 C02        132.0930   106.6550    96.8880 ca         1 A1B       0.157100
      2 C03        131.3810   105.4750    96.6740 ca         1 A1B      -0.182500
      3 C04        130.1440   105.2960    97.2660 ca         1 A1B      -0.040500
      4 C05        129.5840   106.2870    98.0740 ca         1 A1B      -0.173500
      5 C06        128.2910   106.1110    98.7310 cc         1 A1B       0.462000
      6 C09        126.2270   105.6540    99.1290 cc         1 A1B       0.329800
      7 C11        126.8480   105.2550    96.7880 c3         1 A1B       0.129900
      8 C12        125.7670   106.1110    96.1680 ca         1 A1B      -0.189300
      9 C13        125.9910   106.5350    94.8560 ca         1 A1B      -0.066000
     10 C14        125.0770   107.2960    94.1510 ca         1 A1B      -0.142000
     11 C15        123.8910   107.6640    94.7730 ca         1 A1B      -0.065000
     12 C16        123.6420   107.2640    96.0720 ca         1 A1B      -0.142000
     13 C17        124.5620   106.4870    96.7800 ca         1 A1B       0.164100
     14 C19        124.8300   105.2480    98.8470 c3         1 A1B       0.142300
     15 C20        130.3100   107.4560    98.2930 ca         1 A1B      -0.040500
     16 C21        131.5500   107.6430    97.7080 ca         1 A1B      -0.182500
     17 N07        128.0400   106.3940    99.9860 nd         1 A1B      -0.357000
     18 N08        126.7400   106.1150   100.2330 nd         1 A1B      -0.331000
     19 N10        127.1590   105.6330    98.1520 na         1 A1B      -0.354000
     20 O01        133.2870   106.7820    96.2870 oh         1 A1B      -0.529100
     21 O18        124.1620   106.2040    98.0440 os         1 A1B      -0.338100
     22 H1         131.8040   104.6970    96.0520 ha         1 A1B       0.125500
     23 H2         129.6270   104.3570    97.1120 ha         1 A1B       0.124000
     24 H3         126.5770   104.1970    96.7770 h1         1 A1B       0.069700
     25 H4         127.7520   105.3490    96.1920 h1         1 A1B       0.069700
     26 H5         126.9230   106.2550    94.3810 ha         1 A1B       0.110000
     27 H6         125.2910   107.6040    93.1370 ha         1 A1B       0.121000
     28 H7         123.1570   108.2630    94.2500 ha         1 A1B       0.120000
     29 H8         122.7200   107.5480    96.5630 ha         1 A1B       0.132000
     30 H9         124.2710   105.1970    99.7800 h1         1 A1B       0.079200
     31 H10        124.7980   104.2570    98.3830 h1         1 A1B       0.079200
     32 H11        129.8980   108.2360    98.9200 ha         1 A1B       0.124000
     33 H12        132.0920   108.5650    97.8860 ha         1 A1B       0.125500
     34 H13        133.6910   107.6310    96.5030 ho         1 A1B       0.470000
@<TRIPOS>BOND
     1     1     2 ar  
     2     1    16 ar  
     3     1    20 1   
     4     2     3 ar  
     5     2    22 1   
     6     3     4 ar  
     7     3    23 1   
     8     4     5 1   
     9     4    15 ar  
    10     5    17 2   
    11     5    19 1   
    12     6    14 1   
    13     6    18 2   
    14     6    19 1   
    15     7     8 1   
    16     7    19 1   
    17     7    24 1   
    18     7    25 1   
    19     8     9 ar  
    20     8    13 ar  
    21     9    10 ar  
    22     9    26 1   
    23    10    11 ar  
    24    10    27 1   
    25    11    12 ar  
    26    11    28 1   
    27    12    13 ar  
    28    12    29 1   
    29    13    21 1   
    30    14    21 1   
    31    14    30 1   
    32    14    31 1   
    33    15    16 ar  
    34    15    32 1   
    35    16    33 1   
    36    17    18 1   
    37    20    34 1   
@<TRIPOS>SUBSTRUCTURE
     1 A1B         1 TEMP              0 ****  ****    0 ROOT
