@<TRIPOS>MOLECULE
A1B
   51    54     1     0     0
SMALL
abcg2


@<TRIPOS>ATOM
      1 N1          27.1990     5.5150     4.6510 nv         1 A1B      -1.063000
      2 N3          24.6100    12.0960     6.1960 nb         1 A1B      -0.676000
      3 C4          26.2280     8.9020     5.1730 cc         1 A1B       0.365500
      4 C5          26.0820    10.2440     5.7470 ca         1 A1B      -0.205500
      5 C6          27.1390    10.9230     6.3040 ca         1 A1B      -0.028000
      6 C7          26.9400    12.2080     6.8330 ca         1 A1B      -0.125000
      7 C8          27.9760    12.9640     7.4330 ca         1 A1B      -0.056000
      8 C10         26.4180    14.7530     7.8930 ca         1 A1B       0.164100
      9 C13         25.3940    14.0480     7.3050 ca         1 A1B      -0.202000
     10 C15         24.8300    10.9020     5.7170 ca         1 A1B       0.384900
     11 C17         25.9760     7.6820     1.2410 c6         1 A1B      -0.125900
     12 C20         24.1910     6.4190     2.4510 c6         1 A1B      -0.125900
     13 C1          26.7380     6.7930     4.7070 cd         1 A1B       0.297000
     14 C11         25.0140    16.5840     8.4700 c3         1 A1B       0.161600
     15 C12         25.1430    17.9060     9.1870 c3         1 A1B      -0.095100
     16 C14         25.6400    12.7650     6.7660 ca         1 A1B       0.313000
     17 C16         25.6720     6.7870     2.4370 c6         1 A1B       0.104300
     18 C18         25.4720     7.0060    -0.0270 c6         1 A1B       0.154600
     19 C19         23.7900     5.8410     1.1020 c6         1 A1B       0.154600
     20 C2          26.8580     7.7520     5.7190 cc         1 A1B      -0.349600
     21 C3          27.3990     7.4420     7.0410 c          1 A1B       0.659700
     22 C9          27.7260    14.1990     7.9480 ca         1 A1B      -0.132000
     23 N2          27.1240     8.2930     8.0490 nt         1 A1B      -0.596000
     24 N4          25.7600     8.6630     3.9710 nd         1 A1B      -0.516800
     25 N5          26.0860     7.3880     3.6920 na         1 A1B       0.095800
     26 O1          28.0730     6.4280     7.2270 o          1 A1B      -0.655100
     27 O2          26.2960    15.9670     8.4450 os         1 A1B      -0.345100
     28 O3          24.0940     6.7170     0.0410 os         1 A1B      -0.442000
     29 H1          27.6080     5.2110     5.5230 hn         1 A1B       0.480500
     30 H2          26.5910     4.8230     4.2400 hn         1 A1B       0.480500
     31 H3          28.1280    10.4810     6.3370 ha         1 A1B       0.131000
     32 H4          28.9730    12.5460     7.4840 ha         1 A1B       0.121000
     33 H5          24.3860    14.4330     7.2370 ha         1 A1B       0.136000
     34 H6          23.9800    10.3890     5.2770 h4         1 A1B       0.028100
     35 H7          27.0500     7.8590     1.1570 hc         1 A1B       0.068950
     36 H8          25.4880     8.6510     1.3600 hc         1 A1B       0.068950
     37 H9          23.5980     7.3110     2.6690 hc         1 A1B       0.068950
     38 H10         23.9850     5.6860     3.2350 hc         1 A1B       0.068950
     39 H11         24.6500    16.7330     7.4480 h1         1 A1B       0.038700
     40 H12         24.2970    15.9350     8.9850 h1         1 A1B       0.038700
     41 H13         24.1700    18.3960     9.2170 hc         1 A1B       0.048033
     42 H14         25.4810    17.7710    10.2140 hc         1 A1B       0.048033
     43 H15         25.8370    18.5720     8.6750 hc         1 A1B       0.048033
     44 H16         26.2630     5.8730     2.3250 h1         1 A1B       0.060700
     45 H17         26.0470     6.0860    -0.2090 h1         1 A1B       0.047700
     46 H18         25.6200     7.6600    -0.8870 h1         1 A1B       0.047700
     47 H19         22.7150     5.6580     1.0720 h1         1 A1B       0.047700
     48 H20         24.2920     4.8730     0.9550 h1         1 A1B       0.047700
     49 H21         28.5170    14.7750     8.4110 ha         1 A1B       0.131000
     50 H22         27.4150     8.0470     8.9810 hn         1 A1B       0.313000
     51 H23         26.4260     9.0120     7.9690 hn         1 A1B       0.313000
@<TRIPOS>BOND
     1     1    13 1   
     2     1    29 1   
     3     1    30 1   
     4     2    10 ar  
     5     2    16 ar  
     6     3     4 1   
     7     3    20 1   
     8     3    24 2   
     9     4     5 ar  
    10     4    10 ar  
    11     5     6 ar  
    12     5    31 1   
    13     6     7 ar  
    14     6    16 ar  
    15     7    22 ar  
    16     7    32 1   
    17     8     9 ar  
    18     8    22 ar  
    19     8    27 1   
    20     9    16 ar  
    21     9    33 1   
    22    10    34 1   
    23    11    17 1   
    24    11    18 1   
    25    11    35 1   
    26    11    36 1   
    27    12    17 1   
    28    12    19 1   
    29    12    37 1   
    30    12    38 1   
    31    13    20 2   
    32    13    25 1   
    33    14    15 1   
    34    14    27 1   
    35    14    39 1   
    36    14    40 1   
    37    15    41 1   
    38    15    42 1   
    39    15    43 1   
    40    17    25 1   
    41    17    44 1   
    42    18    28 1   
    43    18    45 1   
    44    18    46 1   
    45    19    28 1   
    46    19    47 1   
    47    19    48 1   
    48    20    21 1   
    49    21    23 1   
    50    21    26 2   
    51    22    49 1   
    52    23    50 1   
    53    23    51 1   
    54    24    25 1   
@<TRIPOS>SUBSTRUCTURE
     1 A1B         1 TEMP              0 ****  ****    0 ROOT
