@<TRIPOS>MOLECULE
A1B
   48    48     1     0     0
SMALL
abcg2


@<TRIPOS>ATOM
      1 C01         -4.3950     0.3940    -0.9340 c6         1 A1B       0.148300
      2 C02         -4.8850    -0.3470     0.3220 c6         1 A1B       0.114300
      3 C03         -3.7980    -1.1390     1.0730 c6         1 A1B       0.146300
      4 C04         -2.5010    -0.3570     1.2020 c6         1 A1B      -0.057400
      5 C05         -2.0040     0.1470    -0.1530 c6         1 A1B       0.188500
      6 C06         -3.0310     1.0840    -0.7800 c6         1 A1B       0.176300
      7 C20          1.7540     0.6180     0.0280 c3         1 A1B      -0.079400
      8 N07         -0.7010     0.8060    -0.0340 n7         1 A1B      -0.856400
      9 O09         -3.5000    -2.3760     0.4180 oh         1 A1B      -0.713000
     10 O10         -5.4700     0.6330     1.1800 oh         1 A1B      -0.710000
     11 O11         -4.2660    -0.4910    -2.0460 oh         1 A1B      -0.713000
     12 O12         -3.1290     2.2650     0.0150 oh         1 A1B      -0.697000
     13 H1          -5.1400     1.1670    -1.1580 h1         1 A1B       0.045700
     14 H2          -5.6590    -1.0590     0.0010 h1         1 A1B       0.017700
     15 H3          -4.1910    -1.3500     2.0760 h1         1 A1B       0.028700
     16 H4          -2.6650     0.4960     1.8630 hc         1 A1B       0.069700
     17 H4A         -1.7520    -0.9970     1.6710 hc         1 A1B       0.069700
     18 H5          -1.9360    -0.7120    -0.8340 h1         1 A1B       0.052700
     19 H6          -2.6920     1.3470    -1.7900 h1         1 A1B       0.043700
     20 H19B         0.4100    -0.7960    -0.8920 h1         1 A1B       0.029200
     21 H19A         0.3390    -0.7650     0.8660 h1         1 A1B       0.029200
     22 H20A         1.8040     1.3080    -0.8230 hc         1 A1B       0.044700
     23 H20B         1.7860     1.2350     0.9320 hc         1 A1B       0.044700
     24 C21          2.9640    -0.3110    -0.0070 c3         1 A1B      -0.073400
     25 H7          -0.5820     1.4330    -0.8240 hn         1 A1B       0.411000
     26 H9          -4.3220    -2.8720     0.3090 ho         1 A1B       0.495000
     27 H10         -5.8320     0.1810     1.9530 ho         1 A1B       0.505000
     28 H11         -5.0950    -0.9730    -2.1560 ho         1 A1B       0.503000
     29 H12         -3.8300     2.8190    -0.3490 ho         1 A1B       0.499000
     30 C22          4.2930     0.4380     0.0390 c3         1 A1B      -0.074400
     31 C23          5.5130    -0.4780    -0.0230 c3         1 A1B      -0.074400
     32 C24          6.8390     0.2770     0.0250 c3         1 A1B      -0.076400
     33 C25          8.0640    -0.6320    -0.0520 c3         1 A1B      -0.075400
     34 C26          9.3830     0.1350    -0.0050 c3         1 A1B      -0.088100
     35 H21A         2.9130    -1.0090     0.8370 hc         1 A1B       0.037200
     36 H21B         2.9250    -0.9230    -0.9150 hc         1 A1B       0.037200
     37 H22A         4.3340     1.1490    -0.7930 hc         1 A1B       0.037700
     38 H22B         4.3380     1.0370     0.9560 hc         1 A1B       0.037700
     39 H23B         5.4730    -1.1910     0.8080 hc         1 A1B       0.036700
     40 H23A         5.4700    -1.0740    -0.9410 hc         1 A1B       0.036700
     41 H24B         6.8740     0.9980    -0.8010 hc         1 A1B       0.037200
     42 H24A         6.8870     0.8680     0.9470 hc         1 A1B       0.037200
     43 H25A         8.0290    -1.3520     0.7730 hc         1 A1B       0.036200
     44 H25B         8.0150    -1.2220    -0.9750 hc         1 A1B       0.036200
     45 H26A         9.4700     0.7060     0.9230 hc         1 A1B       0.031367
     46 H26B        10.2410    -0.5380    -0.0660 hc         1 A1B       0.031367
     47 H26C         9.4530     0.8430    -0.8360 hc         1 A1B       0.031367
     48 C19          0.4260    -0.1250    -0.0170 c3         1 A1B       0.158800
@<TRIPOS>BOND
     1     1     2 1   
     2     1     6 1   
     3     1    11 1   
     4     1    13 1   
     5     2     3 1   
     6     2    10 1   
     7     2    14 1   
     8     3     4 1   
     9     3     9 1   
    10     3    15 1   
    11     4     5 1   
    12     4    16 1   
    13     4    17 1   
    14     5     6 1   
    15     5     8 1   
    16     5    18 1   
    17     6    12 1   
    18     6    19 1   
    19     7    22 1   
    20     7    23 1   
    21     7    24 1   
    22     7    48 1   
    23     8    25 1   
    24     8    48 1   
    25     9    26 1   
    26    10    27 1   
    27    11    28 1   
    28    12    29 1   
    29    20    48 1   
    30    21    48 1   
    31    24    30 1   
    32    24    35 1   
    33    24    36 1   
    34    30    31 1   
    35    30    37 1   
    36    30    38 1   
    37    31    32 1   
    38    31    39 1   
    39    31    40 1   
    40    32    33 1   
    41    32    41 1   
    42    32    42 1   
    43    33    34 1   
    44    33    43 1   
    45    33    44 1   
    46    34    45 1   
    47    34    46 1   
    48    34    47 1   
@<TRIPOS>SUBSTRUCTURE
     1 A1B         1 TEMP              0 ****  ****    0 ROOT
