@<TRIPOS>MOLECULE
A1B
   67    71     1     0     0
SMALL
abcg2


@<TRIPOS>ATOM
      1 C5          21.7360   -49.6950   -11.3960 c          1 A1B       0.611700
      2 C7          22.5920   -50.8330   -10.9230 ca         1 A1B      -0.072600
      3 C8          22.0740   -51.9120   -10.1970 ca         1 A1B      -0.217000
      4 N12         26.0710   -51.8960   -11.0990 nu         1 A1B      -0.910100
      5 C13         26.9140   -53.0370   -10.8850 cy         1 A1B       0.215500
      6 C15         28.4620   -54.2830   -11.6710 cy         1 A1B      -0.091400
      7 C17         23.9270   -50.8290   -11.2560 ca         1 A1B      -0.186000
      8 C20         22.5880   -44.3670   -10.6250 c6         1 A1B       0.167800
      9 C21         22.6930   -42.9470   -10.1010 c6         1 A1B      -0.032100
     10 C22         22.7990   -42.9240    -8.6040 ca         1 A1B      -0.024300
     11 C24         23.4020   -41.7590    -6.5710 ca         1 A1B       0.145100
     12 C26         24.2860   -39.5470    -6.5670 c3         1 A1B       0.250900
     13 C28         26.0200   -38.2060    -5.2210 cc         1 A1B      -0.147000
     14 O1          18.8910   -46.1660   -10.2900 oh         1 A1B      -0.631000
     15 C2          19.9820   -47.0370   -10.1010 c3         1 A1B       0.156300
     16 C3          19.7430   -48.3430   -10.8730 c3         1 A1B       0.059000
     17 N4          20.7150   -49.3710   -10.5850 ns         1 A1B      -0.501900
     18 O6          21.9790   -49.1210   -12.4470 o          1 A1B      -0.593100
     19 C9          22.9480   -52.9220    -9.8500 ca         1 A1B       0.383900
     20 N10         24.2420   -52.9320   -10.1510 nb         1 A1B      -0.735000
     21 C11         24.7400   -51.9010   -10.8320 ca         1 A1B       0.613900
     22 C14         26.9410   -54.2000   -11.9010 cy         1 A1B      -0.107400
     23 C16         28.4170   -52.8410   -11.1280 cy         1 A1B      -0.107400
     24 C18         21.2400   -46.3380   -10.5940 c3         1 A1B       0.172800
     25 N19         21.5330   -45.0820    -9.9290 n3         1 A1B      -0.696600
     26 C23         23.2990   -41.7930    -7.9550 ca         1 A1B      -0.202000
     27 C27         24.7310   -38.5370    -5.5750 cd         1 A1B      -0.219300
     28 N29         25.9230   -37.2590    -4.2770 na         1 A1B      -0.002200
     29 N30         24.6680   -36.9420    -3.9810 nc         1 A1B      -0.523800
     30 C31         23.9330   -37.7110    -4.7610 cd         1 A1B       0.264900
     31 C32         22.9910   -42.8710    -5.8290 ca         1 A1B      -0.146000
     32 C33         22.4980   -43.9830    -6.4790 ca         1 A1B      -0.074000
     33 C34         22.3940   -44.0310    -7.8700 ca         1 A1B      -0.114300
     34 C35         21.8860   -45.2820    -8.5370 c6         1 A1B       0.216100
     35 H1          21.0270   -51.9920    -9.9390 ha         1 A1B       0.122000
     36 H2          26.3920   -51.2200   -11.7750 hn         1 A1B       0.483000
     37 H3          26.7390   -53.4260    -9.8810 h1         1 A1B       0.086700
     38 H4          29.0930   -54.4730   -12.5370 hc         1 A1B       0.053200
     39 H5          28.7160   -55.0000   -10.8900 hc         1 A1B       0.053200
     40 H6          24.3570   -50.0140   -11.8240 ha         1 A1B       0.139000
     41 H7          22.3510   -44.3420   -11.6910 h1         1 A1B       0.034700
     42 H8          23.5620   -44.8770   -10.5290 h1         1 A1B       0.034700
     43 H9          23.5560   -42.4490   -10.5490 hc         1 A1B       0.056700
     44 H10         21.8110   -42.3810   -10.4150 hc         1 A1B       0.056700
     45 H11         25.0980   -39.7780    -7.2640 h1         1 A1B       0.039200
     46 H12         23.4470   -39.1590    -7.1550 h1         1 A1B       0.039200
     47 H14         18.1120   -46.5610    -9.8880 ho         1 A1B       0.435000
     48 H15         20.0930   -47.2980    -9.0380 h1         1 A1B       0.023700
     49 H16         18.7570   -48.7320   -10.6040 h1         1 A1B       0.063700
     50 H17         19.7340   -48.1500   -11.9450 h1         1 A1B       0.063700
     51 H18         20.6370   -49.8370    -9.6950 hn         1 A1B       0.317500
     52 H19         22.5830   -53.7850    -9.3040 h4         1 A1B       0.017100
     53 H20         26.3320   -55.0780   -11.6850 hc         1 A1B       0.054700
     54 H21         26.7080   -53.8430   -12.9060 hc         1 A1B       0.054700
     55 H22         28.5980   -52.1150   -11.9250 hc         1 A1B       0.054700
     56 H23         29.0410   -52.5830   -10.2720 hc         1 A1B       0.054700
     57 H24         22.0850   -47.0380   -10.5010 h1         1 A1B       0.048200
     58 H25         21.1170   -46.1340   -11.6620 h1         1 A1B       0.048200
     59 H27         23.6110   -40.9530    -8.5620 ha         1 A1B       0.113000
     60 H28         26.6820   -36.7890    -3.8080 hn         1 A1B       0.372000
     61 H29         22.8550   -37.6550    -4.7260 h4         1 A1B       0.042100
     62 H30         23.0640   -42.8520    -4.7490 ha         1 A1B       0.127000
     63 H31         22.1840   -44.8390    -5.8920 ha         1 A1B       0.109000
     64 H32         21.0120   -45.6380    -7.9870 h1         1 A1B       0.034700
     65 H33         22.6530   -46.0730    -8.4320 h1         1 A1B       0.034700
     66 O25         23.8850   -40.7170    -5.8630 os         1 A1B      -0.344100
     67 H13         26.9720   -38.5700    -5.5730 h4         1 A1B       0.156000
@<TRIPOS>BOND
     1     1     2 1   
     2     1    17 1   
     3     1    18 2   
     4     2     3 ar  
     5     2     7 ar  
     6     3    19 ar  
     7     3    35 1   
     8     4     5 1   
     9     4    21 1   
    10     4    36 1   
    11     5    22 1   
    12     5    23 1   
    13     5    37 1   
    14     6    22 1   
    15     6    23 1   
    16     6    38 1   
    17     6    39 1   
    18     7    21 ar  
    19     7    40 1   
    20     8     9 1   
    21     8    25 1   
    22     8    41 1   
    23     8    42 1   
    24     9    10 1   
    25     9    43 1   
    26     9    44 1   
    27    10    26 ar  
    28    10    33 ar  
    29    11    26 ar  
    30    11    31 ar  
    31    11    66 1   
    32    12    27 1   
    33    12    45 1   
    34    12    46 1   
    35    12    66 1   
    36    13    27 2   
    37    13    28 1   
    38    13    67 1   
    39    14    15 1   
    40    14    47 1   
    41    15    16 1   
    42    15    24 1   
    43    15    48 1   
    44    16    17 1   
    45    16    49 1   
    46    16    50 1   
    47    17    51 1   
    48    19    20 ar  
    49    19    52 1   
    50    20    21 ar  
    51    22    53 1   
    52    22    54 1   
    53    23    55 1   
    54    23    56 1   
    55    24    25 1   
    56    24    57 1   
    57    24    58 1   
    58    25    34 1   
    59    26    59 1   
    60    27    30 1   
    61    28    29 1   
    62    28    60 1   
    63    29    30 2   
    64    30    61 1   
    65    31    32 ar  
    66    31    62 1   
    67    32    33 ar  
    68    32    63 1   
    69    33    34 1   
    70    34    64 1   
    71    34    65 1   
@<TRIPOS>SUBSTRUCTURE
     1 A1B         1 TEMP              0 ****  ****    0 ROOT
