@<TRIPOS>MOLECULE
A1B
   29    30     1     0     0
SMALL
abcg2


@<TRIPOS>ATOM
      1 N1         -32.6470   -34.9760    13.5300 n          1 A1B      -0.231400
      2 C4         -34.9620   -34.1660    11.9870 c6         1 A1B      -0.025100
      3 C5         -34.3850   -33.3320    13.1000 ca         1 A1B      -0.108300
      4 C6         -34.9570   -32.0920    13.3850 ca         1 A1B      -0.101000
      5 C7         -34.4240   -31.2480    14.3420 ca         1 A1B      -0.121000
      6 C8         -33.2710   -31.6310    15.0170 ca         1 A1B      -0.099000
      7 C10        -33.2480   -33.7250    13.8120 ca         1 A1B      -0.029000
      8 C1         -32.0350   -34.5780    11.1690 c3         1 A1B      -0.100100
      9 C11        -32.2430   -35.8030    14.5450 c          1 A1B       0.606100
     10 C12        -31.5940   -37.1110    14.1570 c3         1 A1B      -0.177100
     11 C2         -32.8080   -35.4480    12.1500 c6         1 A1B       0.115700
     12 C3         -34.3020   -35.5310    11.8550 c6         1 A1B      -0.093400
     13 C9         -32.6840   -32.8540    14.7480 ca         1 A1B      -0.101000
     14 O1         -32.3830   -35.5080    15.7200 o          1 A1B      -0.580100
     15 H8         -34.8500   -33.6060    11.0540 hc         1 A1B       0.050200
     16 H7         -36.0390   -34.2820    12.1310 hc         1 A1B       0.050200
     17 H9         -35.8410   -31.7910    12.8340 ha         1 A1B       0.108000
     18 H10        -34.8910   -30.2940    14.5500 ha         1 A1B       0.113000
     19 H11        -32.8200   -30.9730    15.7480 ha         1 A1B       0.114000
     20 H3         -30.9710   -34.5870    11.4060 hc         1 A1B       0.045033
     21 H2         -32.1570   -34.9670    10.1580 hc         1 A1B       0.045033
     22 H1         -32.3700   -33.5410    11.1680 hc         1 A1B       0.045033
     23 H15        -31.1540   -37.5550    15.0460 hc         1 A1B       0.061367
     24 H14        -32.3230   -37.8170    13.7560 hc         1 A1B       0.061367
     25 H13        -30.8130   -36.9820    13.4080 hc         1 A1B       0.061367
     26 H4         -32.4030   -36.4540    12.0860 h1         1 A1B       0.055700
     27 H6         -34.4610   -35.9310    10.8520 hc         1 A1B       0.050700
     28 H5         -34.7490   -36.2410    12.5540 hc         1 A1B       0.050700
     29 H12        -31.7720   -33.1260    15.2600 ha         1 A1B       0.129000
@<TRIPOS>BOND
     1     1     7 1   
     2     1     9 1   
     3     1    11 1   
     4     2     3 1   
     5     2    12 1   
     6     2    15 1   
     7     2    16 1   
     8     3     4 ar  
     9     3     7 ar  
    10     4     5 ar  
    11     4    17 1   
    12     5     6 ar  
    13     5    18 1   
    14     6    13 ar  
    15     6    19 1   
    16     7    13 ar  
    17     8    11 1   
    18     8    20 1   
    19     8    21 1   
    20     8    22 1   
    21     9    10 1   
    22     9    14 2   
    23    10    23 1   
    24    10    24 1   
    25    10    25 1   
    26    11    12 1   
    27    11    26 1   
    28    12    27 1   
    29    12    28 1   
    30    13    29 1   
@<TRIPOS>SUBSTRUCTURE
     1 A1B         1 TEMP              0 ****  ****    0 ROOT
