@<TRIPOS>MOLECULE
A1B
   22    23     1     0     0
SMALL
abcg2


@<TRIPOS>ATOM
      1 N1         -33.2730   -35.5110     8.7880 n8         1 A1B      -0.986200
      2 N3         -34.2900   -34.9810    11.5140 nc         1 A1B      -0.726000
      3 C4         -34.4980   -33.8880    13.7050 ca         1 A1B      -0.204500
      4 C5         -35.2270   -32.8080    13.1980 ca         1 A1B      -0.031000
      5 C6         -35.7180   -31.8270    14.0370 ca         1 A1B      -0.140000
      6 C7         -35.4880   -31.9070    15.4050 ca         1 A1B      -0.054000
      7 C8         -34.7730   -32.9710    15.9340 ca         1 A1B      -0.167000
      8 C1         -33.5800   -36.5810     9.7220 c3         1 A1B       0.124500
      9 C2         -33.5620   -36.0620    11.1180 cc         1 A1B       0.562300
     10 C3         -34.0040   -34.8900    12.7730 cd         1 A1B       0.553500
     11 C9         -34.2910   -33.9430    15.0810 ca         1 A1B       0.220000
     12 F1         -33.6180   -34.9670    15.6090 f          1 A1B      -0.156000
     13 N2         -32.8720   -36.6020    12.0730 nd         1 A1B      -0.370300
     14 O1         -33.1620   -35.8330    13.1690 os         1 A1B      -0.071700
     15 H2         -33.1670   -35.9070     7.8640 hn         1 A1B       0.404000
     16 H1         -34.0610   -34.8780     8.7280 hn         1 A1B       0.404000
     17 H5         -35.4000   -32.7470    12.1320 ha         1 A1B       0.143000
     18 H6         -36.2780   -30.9980    13.6260 ha         1 A1B       0.126000
     19 H7         -35.8670   -31.1410    16.0680 ha         1 A1B       0.123000
     20 H8         -34.5900   -33.0510    16.9970 ha         1 A1B       0.139000
     21 H3         -34.5530   -37.0620     9.5560 h1         1 A1B       0.054200
     22 H4         -32.8250   -37.3630     9.6340 h1         1 A1B       0.054200
@<TRIPOS>BOND
     1     1     8 1   
     2     1    15 1   
     3     1    16 1   
     4     2     9 1   
     5     2    10 2   
     6     3     4 ar  
     7     3    10 1   
     8     3    11 ar  
     9     4     5 ar  
    10     4    17 1   
    11     5     6 ar  
    12     5    18 1   
    13     6     7 ar  
    14     6    19 1   
    15     7    11 ar  
    16     7    20 1   
    17     8     9 1   
    18     8    21 1   
    19     8    22 1   
    20     9    13 2   
    21    10    14 1   
    22    11    12 1   
    23    13    14 1   
@<TRIPOS>SUBSTRUCTURE
     1 A1B         1 TEMP              0 ****  ****    0 ROOT
