@<TRIPOS>MOLECULE
A1B
   33    34     1     0     0
SMALL
abcg2


@<TRIPOS>ATOM
      1 CH2         20.3080    17.5630    19.2760 ca         1 A1B      -0.091000
      2 CD1         20.0910    17.3000    14.7420 cc         1 A1B      -0.146100
      3 CD2         19.7080    18.3460    16.6840 ca         1 A1B      -0.095800
      4 CA          17.3880    19.5950    14.6740 c3         1 A1B       0.113500
      5 CZ3         19.6660    18.7990    19.0510 ca         1 A1B      -0.104300
      6 CE2         20.3490    17.1180    16.9450 ca         1 A1B      -0.053200
      7 CE3         19.3690    19.1830    17.7560 ca         1 A1B      -0.064000
      8 NE1         20.5680    16.5060    15.7450 na         1 A1B      -0.222700
      9 CG          19.5550    18.4460    15.2620 cd         1 A1B      -0.157400
     10 C14         16.7300    23.1200    13.8230 c3         1 A1B       0.152900
     11 N           16.8170    18.3630    14.1820 n8         1 A1B      -0.987200
     12 C           16.8290    20.7660    13.8890 c          1 A1B       0.583100
     13 CZ2         20.6560    16.7150    18.2440 ca         1 A1B      -0.124000
     14 CM1         19.3180    19.6750    20.2220 c3         1 A1B      -0.041800
     15 HH2         20.5350    17.2700    20.2940 ha         1 A1B       0.109000
     16 HD1         20.1740    16.9940    13.7100 h4         1 A1B       0.218000
     17 HA          17.1750    19.7890    15.7360 h1         1 A1B       0.045700
     18 HB2         19.1540    19.4660    13.4410 hc         1 A1B       0.061700
     19 HB3         19.3370    20.5180    14.8350 hc         1 A1B       0.061700
     20 HE3         18.8770    20.1320    17.5730 ha         1 A1B       0.115000
     21 HE1         21.0180    15.6160    15.6130 hn         1 A1B       0.351000
     22 H17         17.0930    23.9340    14.4440 h1         1 A1B       0.047033
     23 H18         17.1620    23.2080    12.8260 h1         1 A1B       0.047033
     24 H19         15.6440    23.1810    13.7500 h1         1 A1B       0.047033
     25 H           17.2400    17.5910    14.6830 hn         1 A1B       0.407000
     26 HZ2         21.1500    15.7720    18.4400 ha         1 A1B       0.113000
     27 H50         18.6680    19.1570    20.9300 hc         1 A1B       0.039033
     28 H51         20.2100    19.9780    20.7740 hc         1 A1B       0.039033
     29 H52         18.8040    20.5810    19.9040 hc         1 A1B       0.039033
     30 H2          15.8280    18.3240    14.3950 hn         1 A1B       0.407000
     31 CB          18.9220    19.5640    14.5050 c3         1 A1B       0.005800
     32 O           16.1950    20.6840    12.8700 o          1 A1B      -0.462000
     33 OXT         17.1430    21.9180    14.4700 os         1 A1B      -0.452100
@<TRIPOS>BOND
     1     1     5 ar  
     2     1    13 ar  
     3     1    15 1   
     4     2     8 1   
     5     2     9 2   
     6     2    16 1   
     7     3     6 ar  
     8     3     7 ar  
     9     3     9 1   
    10     4    11 1   
    11     4    12 1   
    12     4    17 1   
    13     4    31 1   
    14     5     7 ar  
    15     5    14 1   
    16     6     8 1   
    17     6    13 ar  
    18     7    20 1   
    19     8    21 1   
    20     9    31 1   
    21    10    22 1   
    22    10    23 1   
    23    10    24 1   
    24    10    33 1   
    25    11    25 1   
    26    11    30 1   
    27    12    32 2   
    28    12    33 1   
    29    13    26 1   
    30    14    27 1   
    31    14    28 1   
    32    14    29 1   
    33    18    31 1   
    34    19    31 1   
@<TRIPOS>SUBSTRUCTURE
     1 A1B         1 TEMP              0 ****  ****    0 ROOT
