@<TRIPOS>MOLECULE
A1B
   52    55     1     0     0
SMALL
abcg2


@<TRIPOS>ATOM
      1 C12        -22.1160   -42.4060    18.9700 c3         1 A1B       0.152300
      2 C13        -22.7910   -43.6410    18.4380 ca         1 A1B      -0.080300
      3 C14        -22.5440   -44.8820    19.0200 ca         1 A1B      -0.130000
      4 C15        -23.2160   -46.0010    18.5530 ca         1 A1B      -0.075000
      5 C16        -24.1320   -45.9040    17.5150 ca         1 A1B      -0.135000
      6 C21        -24.7010   -42.9680    21.0970 ca         1 A1B      -0.053000
      7 C20        -23.9800   -41.9580    20.4740 ca         1 A1B      -0.058000
      8 C17        -24.3790   -44.6640    16.9320 ca         1 A1B       0.136100
      9 C04        -21.5340   -41.9850    23.7810 ca         1 A1B      -0.028000
     10 C05        -21.0700   -40.8780    24.4830 ca         1 A1B      -0.120000
     11 C06        -20.3890   -41.0290    25.6800 ca         1 A1B      -0.096000
     12 C07        -20.1440   -42.2990    26.1810 ca         1 A1B      -0.103000
     13 C08        -20.6000   -43.4160    25.4960 ca         1 A1B      -0.092000
     14 C09        -21.3020   -43.2540    24.3110 ca         1 A1B       0.128000
     15 C19        -23.7050   -43.5360    17.3980 ca         1 A1B      -0.195000
     16 C22        -26.0840   -42.9050    21.1780 ca         1 A1B      -0.188300
     17 C27        -26.7650   -41.8320    20.6200 ca         1 A1B      -0.049000
     18 C28        -26.0540   -40.8160    20.0060 ca         1 A1B      -0.120000
     19 C29        -24.6690   -40.8680    19.9350 ca         1 A1B       0.019800
     20 C31        -22.9150   -39.0990    19.7820 cc         1 A1B      -0.202000
     21 C32        -22.5960   -38.2210    18.7920 cd         1 A1B       0.232900
     22 C34        -24.2340   -39.3550    18.0440 cc         1 A1B       0.395400
     23 F24        -26.5030   -45.2120    21.3530 f          1 A1B      -0.108333
     24 F25        -28.1340   -43.8830    21.8070 f          1 A1B      -0.108333
     25 F26        -26.4820   -44.0750    23.1730 f          1 A1B      -0.108333
     26 N03        -22.2530   -41.8180    22.5880 ns         1 A1B      -0.179000
     27 N11        -22.5840   -42.0810    20.3160 n          1 A1B      -0.253400
     28 N30        -23.9750   -39.8250    19.2950 na         1 A1B      -0.088300
     29 N33        -23.4210   -38.3950    17.7120 nd         1 A1B      -0.661000
     30 O01        -20.6050   -42.6650    21.2860 o          1 A1B      -0.593100
     31 O18        -25.2810   -44.6070    15.9330 oh         1 A1B      -0.532100
     32 CL10       -21.9220   -44.6520    23.5050 cl         1 A1B      -0.189000
     33 H1         -21.0380   -42.5460    19.0210 h1         1 A1B       0.078700
     34 H2         -22.2950   -41.5590    18.3050 h1         1 A1B       0.078700
     35 H3         -21.8390   -44.9690    19.8370 ha         1 A1B       0.130000
     36 H4         -23.0280   -46.9680    19.0010 ha         1 A1B       0.119000
     37 H5         -24.6550   -46.7810    17.1570 ha         1 A1B       0.131000
     38 H6         -24.1570   -43.8130    21.4990 ha         1 A1B       0.153000
     39 H7         -21.2490   -39.8910    24.0750 ha         1 A1B       0.117000
     40 H8         -20.0390   -40.1550    26.2130 ha         1 A1B       0.121000
     41 H9         -19.6020   -42.4280    27.1080 ha         1 A1B       0.121000
     42 H10        -20.4230   -44.4090    25.8860 ha         1 A1B       0.133000
     43 H11        -23.9000   -42.5660    16.9510 ha         1 A1B       0.110000
     44 H12        -27.8420   -41.7620    20.6650 ha         1 A1B       0.142000
     45 H13        -26.5790   -39.9640    19.5950 ha         1 A1B       0.138000
     46 H14        -22.5140   -39.2500    20.7690 h4         1 A1B       0.160000
     47 H15        -21.8210   -37.4710    18.8040 h4         1 A1B       0.044100
     48 H16        -25.0180   -39.7750    17.4300 h5         1 A1B       0.056100
     49 H17        -23.0430   -41.1890    22.6110 hn         1 A1B       0.162000
     50 H18        -25.3690   -43.7030    15.6090 ho         1 A1B       0.463000
     51 C23        -26.8080   -44.0170    21.8750 c3         1 A1B       0.360300
     52 C02        -21.7350   -42.2250    21.3890 c          1 A1B       0.664100
@<TRIPOS>BOND
     1     1     2 1   
     2     1    27 1   
     3     1    33 1   
     4     1    34 1   
     5     2     3 ar  
     6     2    15 ar  
     7     3     4 ar  
     8     3    35 1   
     9     4     5 ar  
    10     4    36 1   
    11     5     8 ar  
    12     5    37 1   
    13     6     7 ar  
    14     6    16 ar  
    15     6    38 1   
    16     7    19 ar  
    17     7    27 1   
    18     8    15 ar  
    19     8    31 1   
    20     9    10 ar  
    21     9    14 ar  
    22     9    26 1   
    23    10    11 ar  
    24    10    39 1   
    25    11    12 ar  
    26    11    40 1   
    27    12    13 ar  
    28    12    41 1   
    29    13    14 ar  
    30    13    42 1   
    31    14    32 1   
    32    15    43 1   
    33    16    17 ar  
    34    16    51 1   
    35    17    18 ar  
    36    17    44 1   
    37    18    19 ar  
    38    18    45 1   
    39    19    28 1   
    40    20    21 2   
    41    20    28 1   
    42    20    46 1   
    43    21    29 1   
    44    21    47 1   
    45    22    28 1   
    46    22    29 2   
    47    22    48 1   
    48    23    51 1   
    49    24    51 1   
    50    25    51 1   
    51    26    49 1   
    52    26    52 1   
    53    27    52 1   
    54    30    52 2   
    55    31    50 1   
@<TRIPOS>SUBSTRUCTURE
     1 A1B         1 TEMP              0 ****  ****    0 ROOT
