@<TRIPOS>MOLECULE
A1B
   25    25     1     0     0
SMALL
abcg2


@<TRIPOS>ATOM
      1 C06        116.9010   118.2560   104.0170 ca         1 A1B       0.421900
      2 C08        118.6530   119.8160   104.6230 c3         1 A1B       0.214100
      3 C10        115.7100   120.8500   105.5670 c3         1 A1B       0.122800
      4 N11        114.7890   121.9740   105.5020 n8         1 A1B      -0.993200
      5 C02        115.2220   116.7850   103.5350 ca         1 A1B       0.402900
      6 C04        117.2620   115.9220   103.9050 ca         1 A1B       0.167900
      7 C05        117.7990   117.1690   104.1170 ca         1 A1B      -0.345000
      8 C09        116.3390   120.6200   104.1980 c3         1 A1B       0.231800
      9 N01        113.9230   116.6020   103.1940 nv         1 A1B      -1.054900
     10 N03        115.9840   115.6910   103.6140 nb         1 A1B      -0.277000
     11 N07        117.2990   119.5330   104.1980 nh         1 A1B      -0.784300
     12 N12        115.6160   118.0390   103.7320 nb         1 A1B      -0.327000
     13 H1         118.7790   120.8920   104.7090 h1         1 A1B       0.039033
     14 H2         118.8860   119.3730   105.5940 h1         1 A1B       0.039033
     15 H3         119.3860   119.4550   103.9000 h1         1 A1B       0.039033
     16 H4         115.1500   119.9570   105.8520 h1         1 A1B       0.034200
     17 H5         116.5070   120.9720   106.3150 h1         1 A1B       0.034200
     18 H6         114.2940   122.0570   106.3800 hn         1 A1B       0.393000
     19 H7         115.3140   122.8340   105.4030 hn         1 A1B       0.393000
     20 H9         117.9010   115.0480   103.9770 h4         1 A1B       0.013100
     21 H10        118.8450   117.2840   104.3530 ha         1 A1B       0.129000
     22 H11        116.8600   121.5230   103.8740 h1         1 A1B       0.067200
     23 H12        115.5590   120.4180   103.4670 h1         1 A1B       0.067200
     24 H13        113.5440   115.6750   103.2780 hn         1 A1B       0.486000
     25 H14        113.2820   117.3590   103.3590 hn         1 A1B       0.486000
@<TRIPOS>BOND
     1     1     7 ar  
     2     1    11 1   
     3     1    12 ar  
     4     2    11 1   
     5     2    13 1   
     6     2    14 1   
     7     2    15 1   
     8     3     4 1   
     9     3     8 1   
    10     3    16 1   
    11     3    17 1   
    12     4    18 1   
    13     4    19 1   
    14     5     9 1   
    15     5    10 ar  
    16     5    12 ar  
    17     6     7 ar  
    18     6    10 ar  
    19     6    20 1   
    20     7    21 1   
    21     8    11 1   
    22     8    22 1   
    23     8    23 1   
    24     9    24 1   
    25     9    25 1   
@<TRIPOS>SUBSTRUCTURE
     1 A1B         1 TEMP              0 ****  ****    0 ROOT
