@<TRIPOS>MOLECULE
A1B
   41    42     1     0     0
SMALL
abcg2


@<TRIPOS>ATOM
      1 N1           9.2790    15.7240    22.2630 n          1 A1B      -0.403800
      2 C4           9.6090    10.2170    23.1720 ca         1 A1B      -0.114000
      3 C5           9.2620    11.5320    23.4560 ca         1 A1B      -0.096000
      4 C6           8.1060    11.8300    24.1660 ca         1 A1B      -0.094300
      5 C7           7.7180    13.2570    24.4890 c3         1 A1B       0.162300
      6 C8           8.4200    14.7360    22.6780 c          1 A1B       0.645100
      7 C10         11.6570    15.1460    22.1090 c6         1 A1B      -0.108400
      8 C13         10.2080    15.7370    18.5860 c          1 A1B       0.612100
      9 O1          10.0860    16.9100    18.2620 o          1 A1B      -0.607100
     10 N2          10.3700    14.7470    17.6950 nt         1 A1B      -0.607000
     11 C12         10.2200    15.3030    20.0380 c6         1 A1B      -0.180700
     12 C11         11.6350    15.4580    20.6170 c6         1 A1B      -0.069400
     13 C9          10.5940    15.9550    22.8430 c6         1 A1B       0.090000
     14 C14          9.2280    16.1220    20.8680 c6         1 A1B       0.106000
     15 O            7.5180    14.3180    21.9600 o          1 A1B      -0.633100
     16 N            8.5820    14.2670    23.9440 ns         1 A1B      -0.525900
     17 C1           7.2800    10.7860    24.6090 ca         1 A1B      -0.071300
     18 C            6.0280    11.0710    25.3880 c3         1 A1B      -0.050800
     19 C3           8.7940     9.1820    23.6020 ca         1 A1B      -0.108000
     20 C2           7.6400     9.4740    24.3180 ca         1 A1B      -0.107000
     21 H7           9.9070    12.3350    23.1220 ha         1 A1B       0.108000
     22 H9           6.6920    13.4370    24.1590 h1         1 A1B       0.060700
     23 H8           7.7080    13.3880    25.5730 h1         1 A1B       0.060700
     24 H13         12.6410    15.3740    22.5240 hc         1 A1B       0.048700
     25 H14         11.4800    14.0790    22.2740 hc         1 A1B       0.048700
     26 H18         10.4310    14.9500    16.7100 hn         1 A1B       0.314500
     27 H17         10.4700    13.7880    17.9780 hn         1 A1B       0.314500
     28 H            9.9310    14.2480    20.1070 hc         1 A1B       0.066700
     29 H15         11.9740    16.4870    20.4590 hc         1 A1B       0.051200
     30 H16         12.3330    14.8090    20.0840 hc         1 A1B       0.051200
     31 H11         10.8140    17.0230    22.7470 h1         1 A1B       0.051700
     32 H12         10.6140    15.7500    23.9100 h1         1 A1B       0.051700
     33 H19          9.4870    17.1820    20.8110 h1         1 A1B       0.080200
     34 H20          8.2140    16.0140    20.4930 h1         1 A1B       0.080200
     35 H10          9.2910    14.6350    24.5510 hn         1 A1B       0.313500
     36 H2           6.2400    11.6230    26.3060 hc         1 A1B       0.042700
     37 H1           5.3220    11.6760    24.8150 hc         1 A1B       0.042700
     38 H3           5.5220    10.1480    25.6670 hc         1 A1B       0.042700
     39 H5           9.0530     8.1530    23.3880 ha         1 A1B       0.112000
     40 H4           7.0040     8.6650    24.6590 ha         1 A1B       0.110000
     41 H6          10.5140    10.0070    22.6150 ha         1 A1B       0.109000
@<TRIPOS>BOND
     1     1     6 1   
     2     1    13 1   
     3     1    14 1   
     4     2     3 ar  
     5     2    19 ar  
     6     2    41 1   
     7     3     4 ar  
     8     3    21 1   
     9     4     5 1   
    10     4    17 ar  
    11     5    16 1   
    12     5    22 1   
    13     5    23 1   
    14     6    15 2   
    15     6    16 1   
    16     7    12 1   
    17     7    13 1   
    18     7    24 1   
    19     7    25 1   
    20     8     9 2   
    21     8    10 1   
    22     8    11 1   
    23    10    26 1   
    24    10    27 1   
    25    11    12 1   
    26    11    14 1   
    27    11    28 1   
    28    12    29 1   
    29    12    30 1   
    30    13    31 1   
    31    13    32 1   
    32    14    33 1   
    33    14    34 1   
    34    16    35 1   
    35    17    18 1   
    36    17    20 ar  
    37    18    36 1   
    38    18    37 1   
    39    18    38 1   
    40    19    20 ar  
    41    19    39 1   
    42    20    40 1   
@<TRIPOS>SUBSTRUCTURE
     1 A1B         1 TEMP              0 ****  ****    0 ROOT
