@<TRIPOS>MOLECULE
A1B
   36    38     1     0     0
SMALL
abcg2


@<TRIPOS>ATOM
      1 N1          12.0360    11.1250    22.7480 nc         1 A1B      -0.430300
      2 N3          12.1970    16.8520    20.6130 nc         1 A1B      -0.668000
      3 C4          13.3070    14.8570    19.5530 c3         1 A1B      -0.119700
      4 C5          12.1080    15.6210    19.9850 cc         1 A1B       0.240300
      5 C6          10.8050    15.2750    19.9240 cd         1 A1B       0.088900
      6 C7          10.9850    17.1720    20.8870 cd         1 A1B       0.436900
      7 C8          10.2410    12.5310    23.4850 ca         1 A1B      -0.099900
      8 C10          8.3570    13.8850    24.1280 ca         1 A1B      -0.086000
      9 C13          9.5440    11.3930    23.9150 ca         1 A1B      -0.151600
     10 C14         10.1410    10.0660    23.7680 c          1 A1B       0.551600
     11 N           11.3680    10.0500    23.1490 n          1 A1B      -0.136800
     12 C           12.0300     8.7740    22.9350 c3         1 A1B       0.100300
     13 C12          8.2660    11.5090    24.4670 ca         1 A1B      -0.056000
     14 C11          7.6780    12.7490    24.5750 ca         1 A1B      -0.111000
     15 C9           9.6230    13.7860    23.5910 ca         1 A1B      -0.082000
     16 C1          11.5420    12.3030    22.9040 cd         1 A1B       0.322900
     17 C2          12.4370    13.4300    22.4680 c          1 A1B       0.542800
     18 O           12.4970    14.4640    23.1160 o          1 A1B      -0.583100
     19 N2          13.1470    13.1850    21.3600 ns         1 A1B      -0.488900
     20 C3          14.0050    14.1550    20.7240 c3         1 A1B       0.102000
     21 O1          10.0810    16.2680    20.5000 os         1 A1B      -0.261000
     22 H6          14.0240    15.5290    19.0760 hc         1 A1B       0.058200
     23 H7          13.0230    14.1130    18.8070 hc         1 A1B       0.058200
     24 H8          10.2710    14.4260    19.5310 h4         1 A1B       0.063100
     25 H9          10.6230    18.0650    21.3740 h5         1 A1B       0.083100
     26 H11          7.8850    14.8560    24.2020 ha         1 A1B       0.120000
     27 H1          12.9480     8.9640    22.3900 h1         1 A1B       0.056700
     28 H           12.2660     8.2940    23.8830 h1         1 A1B       0.056700
     29 H2          11.3980     8.1070    22.3520 h1         1 A1B       0.056700
     30 H13          7.7440    10.6220    24.8000 ha         1 A1B       0.140000
     31 H12          6.6870    12.8440    24.9990 ha         1 A1B       0.121000
     32 H10         10.1300    14.6770    23.2560 ha         1 A1B       0.144000
     33 H3          13.0020    12.3080    20.8850 hn         1 A1B       0.323500
     34 H4          14.3310    14.8830    21.4650 h1         1 A1B       0.068200
     35 H5          14.8950    13.6430    20.3570 h1         1 A1B       0.068200
     36 O2           9.6180     9.0280    24.1400 o          1 A1B      -0.532000
@<TRIPOS>BOND
     1     1    11 1   
     2     1    16 2   
     3     2     4 1   
     4     2     6 2   
     5     3     4 1   
     6     3    20 1   
     7     3    22 1   
     8     3    23 1   
     9     4     5 2   
    10     5    21 1   
    11     5    24 1   
    12     6    21 1   
    13     6    25 1   
    14     7     9 ar  
    15     7    15 ar  
    16     7    16 1   
    17     8    14 ar  
    18     8    15 ar  
    19     8    26 1   
    20     9    10 1   
    21     9    13 ar  
    22    10    11 1   
    23    10    36 2   
    24    11    12 1   
    25    12    27 1   
    26    12    28 1   
    27    12    29 1   
    28    13    14 ar  
    29    13    30 1   
    30    14    31 1   
    31    15    32 1   
    32    16    17 1   
    33    17    18 2   
    34    17    19 1   
    35    19    20 1   
    36    19    33 1   
    37    20    34 1   
    38    20    35 1   
@<TRIPOS>SUBSTRUCTURE
     1 A1B         1 TEMP              0 ****  ****    0 ROOT
