@<TRIPOS>MOLECULE
A1B
   45    46     1     0     0
SMALL
abcg2


@<TRIPOS>ATOM
      1 N1          25.6680    14.1360    10.4930 n          1 A1B      -0.397800
      2 C4          29.0770    10.5680     7.3080 ca         1 A1B      -0.305500
      3 C5          30.0880    10.7100     4.7030 c3         1 A1B      -0.339100
      4 C6          28.4160    11.7160     7.7330 ca         1 A1B      -0.007000
      5 C7          27.2320    11.6110     8.4340 ca         1 A1B      -0.086000
      6 C8          26.4490    13.0580    10.1870 c          1 A1B       0.648100
      7 C10         23.2580    13.7750    10.2760 c6         1 A1B      -0.108400
      8 C13         24.2220    14.2200    13.9880 c          1 A1B       0.609100
      9 O4          24.0530    15.3960    14.2840 o          1 A1B      -0.610100
     10 N2          24.3060    13.2420    14.9020 nt         1 A1B      -0.605000
     11 C12         24.3580    13.7790    12.5440 c6         1 A1B      -0.177700
     12 C11         23.0770    14.0810    11.7590 c6         1 A1B      -0.067400
     13 C9          24.4840    14.4890     9.7190 c6         1 A1B       0.095000
     14 C14         25.5430    14.5010    11.8920 c6         1 A1B       0.101000
     15 O3          27.0620    12.4130    11.0230 o          1 A1B      -0.615100
     16 N           26.5310    12.7530     8.8460 ns         1 A1B      -0.165000
     17 C1          26.6970    10.3380     8.7140 ca         1 A1B       0.209100
     18 O           25.5320    10.3220     9.3610 os         1 A1B      -0.320100
     19 C           24.9360     9.0770     9.6780 c3         1 A1B       0.144900
     20 O1          31.3910     9.5220     6.6570 o          1 A1B      -0.525000
     21 O2          31.1710    12.0290     6.7030 o          1 A1B      -0.525000
     22 C3          28.5750     9.3120     7.6030 ca         1 A1B       0.026000
     23 C2          27.3850     9.1980     8.3040 ca         1 A1B      -0.219000
     24 H6          30.9870    10.8150     4.0960 h1         1 A1B       0.100367
     25 H8          29.5940     9.7680     4.4760 h1         1 A1B       0.100367
     26 H7          29.4140    11.5440     4.5200 h1         1 A1B       0.100367
     27 H9          28.8190    12.7000     7.5290 ha         1 A1B       0.141000
     28 H13         22.3720    14.0840     9.7190 hc         1 A1B       0.051700
     29 H14         23.3730    12.6980    10.1230 hc         1 A1B       0.051700
     30 H17         24.2230    13.4500    15.8840 hn         1 A1B       0.315000
     31 H18         24.4460    12.2820    14.6400 hn         1 A1B       0.315000
     32 H           24.5500    12.7020    12.4990 hc         1 A1B       0.065700
     33 H15         22.8200    15.1370    11.8810 hc         1 A1B       0.053700
     34 H16         22.2440    13.5020    12.1640 hc         1 A1B       0.053700
     35 H11         24.3500    15.5720     9.7850 h1         1 A1B       0.054200
     36 H12         24.6170    14.2550     8.6660 h1         1 A1B       0.054200
     37 H20         25.3870    15.5810    11.9430 h1         1 A1B       0.076700
     38 H19         26.4730    14.2800    12.4120 h1         1 A1B       0.076700
     39 H10         26.4350    13.4950     8.1690 hn         1 A1B       0.155000
     40 H2          24.0080     9.3070    10.1950 h1         1 A1B       0.046700
     41 H3          24.7070     8.4960     8.7810 h1         1 A1B       0.046700
     42 H1          25.5710     8.4810    10.3370 h1         1 A1B       0.046700
     43 H5          29.0920     8.4150     7.2910 ha         1 A1B       0.136000
     44 H4          27.0010     8.2090     8.5150 ha         1 A1B       0.125000
     45 S           30.5900    10.7200     6.4100 sy         1 A1B       1.069500
@<TRIPOS>BOND
     1     1     6 1   
     2     1    13 1   
     3     1    14 1   
     4     2     4 ar  
     5     2    22 ar  
     6     2    45 1   
     7     3    24 1   
     8     3    25 1   
     9     3    26 1   
    10     3    45 1   
    11     4     5 ar  
    12     4    27 1   
    13     5    16 1   
    14     5    17 ar  
    15     6    15 2   
    16     6    16 1   
    17     7    12 1   
    18     7    13 1   
    19     7    28 1   
    20     7    29 1   
    21     8     9 2   
    22     8    10 1   
    23     8    11 1   
    24    10    30 1   
    25    10    31 1   
    26    11    12 1   
    27    11    14 1   
    28    11    32 1   
    29    12    33 1   
    30    12    34 1   
    31    13    35 1   
    32    13    36 1   
    33    14    37 1   
    34    14    38 1   
    35    16    39 1   
    36    17    18 1   
    37    17    23 ar  
    38    18    19 1   
    39    19    40 1   
    40    19    41 1   
    41    19    42 1   
    42    20    45 2   
    43    21    45 2   
    44    22    23 ar  
    45    22    43 1   
    46    23    44 1   
@<TRIPOS>SUBSTRUCTURE
     1 A1B         1 TEMP              0 ****  ****    0 ROOT
