@<TRIPOS>MOLECULE
A1B
   34    35     1     0     0
SMALL
abcg2


@<TRIPOS>ATOM
      1 N1           9.9950    13.9790    22.2160 n          1 A1B      -0.409800
      2 C4           9.7200    10.7070    23.9790 cc         1 A1B      -0.032300
      3 C5          10.1070    12.1380    23.8270 c3         1 A1B      -0.101100
      4 C6           9.6880    12.6900    22.4670 c          1 A1B       0.607100
      5 C7          10.7880    14.8390    23.0800 c6         1 A1B       0.097000
      6 C8          12.1520    15.1020    22.4560 c6         1 A1B      -0.100400
      7 C10         11.0990    14.7810    20.1910 c6         1 A1B      -0.170700
      8 C11         10.8730    15.4200    18.8350 c          1 A1B       0.609100
      9 N2          11.4910    14.8220    17.8060 nt         1 A1B      -0.606000
     10 C9          12.0000    15.6760    21.0520 c6         1 A1B      -0.068400
     11 C12          9.7610    14.5520    20.9030 c6         1 A1B       0.102000
     12 O            9.1000    11.9790    21.6660 o          1 A1B      -0.590100
     13 C1           8.6910    10.2540    24.7700 cd         1 A1B      -0.160000
     14 C            7.8340    11.0440    25.5610 ch         1 A1B       0.350000
     15 N            7.1350    11.6940    26.2090 n1         1 A1B      -0.450000
     16 C3          10.3780     9.6300    23.3350 cc         1 A1B      -0.116000
     17 C2           9.8470     8.4150    23.6480 cd         1 A1B      -0.239000
     18 S            8.5320     8.5370    24.7260 ss         1 A1B       0.284000
     19 H4           9.6700    12.7410    24.6270 hc         1 A1B       0.072200
     20 H3          11.1910    12.2280    23.9400 hc         1 A1B       0.072200
     21 H6          10.2490    15.7830    23.2030 h1         1 A1B       0.054700
     22 H5          10.8900    14.4080    24.0720 h1         1 A1B       0.054700
     23 H7          12.7070    15.7990    23.0870 hc         1 A1B       0.049200
     24 H8          12.7220    14.1690    22.4270 hc         1 A1B       0.049200
     25 H           11.5870    13.8090    20.0680 hc         1 A1B       0.057700
     26 H12         11.4130    15.1960    16.8740 hn         1 A1B       0.314500
     27 H11         12.0460    13.9930    17.9270 hn         1 A1B       0.314500
     28 H9          11.5540    16.6730    21.1150 hc         1 A1B       0.055200
     29 H10         12.9780    15.7910    20.5810 hc         1 A1B       0.055200
     30 H13          9.2390    15.5050    21.0250 h1         1 A1B       0.078200
     31 H14          9.1180    13.8920    20.3280 h1         1 A1B       0.078200
     32 H2          11.2180     9.7570    22.6690 ha         1 A1B       0.139000
     33 H1          10.1640     7.4460    23.2940 h4         1 A1B       0.155000
     34 O1          10.1880    16.4250    18.7060 o          1 A1B      -0.605100
@<TRIPOS>BOND
     1     1     4 1   
     2     1     5 1   
     3     1    11 1   
     4     2     3 1   
     5     2    13 2   
     6     2    16 1   
     7     3     4 1   
     8     3    19 1   
     9     3    20 1   
    10     4    12 2   
    11     5     6 1   
    12     5    21 1   
    13     5    22 1   
    14     6    10 1   
    15     6    23 1   
    16     6    24 1   
    17     7     8 1   
    18     7    10 1   
    19     7    11 1   
    20     7    25 1   
    21     8     9 1   
    22     8    34 2   
    23     9    26 1   
    24     9    27 1   
    25    10    28 1   
    26    10    29 1   
    27    11    30 1   
    28    11    31 1   
    29    13    14 1   
    30    13    18 1   
    31    14    15 3   
    32    16    17 2   
    33    16    32 1   
    34    17    18 1   
    35    17    33 1   
@<TRIPOS>SUBSTRUCTURE
     1 A1B         1 TEMP              0 ****  ****    0 ROOT
