@<TRIPOS>MOLECULE
A1B
   46    48     1     0     0
SMALL
abcg2


@<TRIPOS>ATOM
      1 N1           8.8170    11.2530    25.2580 na         1 A1B      -0.148500
      2 N3          11.4540    14.4480    17.8190 nt         1 A1B      -0.607000
      3 C4          10.8480    12.2650    24.1710 c3         1 A1B      -0.076100
      4 C5          10.2940    13.0470    22.9800 c          1 A1B       0.595100
      5 C6          12.3380    14.4660    23.0330 c6         1 A1B       0.096000
      6 C7          13.3720    14.0950    21.9760 c6         1 A1B      -0.102400
      7 C8          13.0320    14.7380    20.6360 c6         1 A1B      -0.069400
      8 C10         11.2420    15.1520    18.9410 c          1 A1B       0.611100
      9 C13          7.1270    12.2080    26.7370 c6         1 A1B      -0.092400
     10 C15          7.0080     9.7900    26.1320 c6         1 A1B      -0.102700
     11 O1          10.8300    16.3030    18.9370 o          1 A1B      -0.605100
     12 C9          11.5850    14.4260    20.2270 c6         1 A1B      -0.174700
     13 C11         10.6320    14.8220    21.3560 c6         1 A1B       0.102000
     14 N2          11.0020    14.1230    22.5730 n          1 A1B      -0.409800
     15 O            9.2490    12.7080    22.4450 o          1 A1B      -0.585100
     16 C3           9.9900    11.1180    24.5510 cc         1 A1B      -0.194300
     17 C1          10.1150     9.7770    24.3110 cd         1 A1B       0.268300
     18 C           11.2010     9.0590    23.5860 c3         1 A1B      -0.105400
     19 C12          8.2090    12.4920    25.7070 c6         1 A1B       0.071600
     20 C14          6.2130    11.0850    26.2650 c6         1 A1B      -0.081400
     21 C2           8.2860    10.0190    25.3990 cc         1 A1B       0.420800
     22 N            9.0460     9.1070    24.8440 nd         1 A1B      -0.682000
     23 H13         11.3130    14.8700    16.9160 hn         1 A1B       0.315000
     24 H12         11.8000    13.5040    17.8410 hn         1 A1B       0.315000
     25 H4          11.0020    12.9430    25.0160 hc         1 A1B       0.066700
     26 H5          11.8420    11.8880    23.9200 hc         1 A1B       0.066700
     27 H6          12.3640    15.5450    23.2130 h1         1 A1B       0.053200
     28 H7          12.5600    13.9870    23.9820 h1         1 A1B       0.053200
     29 H8          14.3610    14.4190    22.3070 hc         1 A1B       0.049700
     30 H9          13.4080    13.0070    21.8730 hc         1 A1B       0.049700
     31 H10         13.1530    15.8240    20.7130 hc         1 A1B       0.051700
     32 H11         13.7250    14.3940    19.8650 hc         1 A1B       0.051700
     33 H18          7.5850    11.9330    27.6910 hc         1 A1B       0.052700
     34 H19          6.5650    13.1270    26.9070 hc         1 A1B       0.052700
     35 H22          7.2270     9.3950    27.1290 hc         1 A1B       0.065700
     36 H23          6.4300     9.0200    25.6170 hc         1 A1B       0.065700
     37 H           11.4950    13.3450    20.0690 hc         1 A1B       0.064700
     38 H14         10.7000    15.8970    21.5410 h1         1 A1B       0.078200
     39 H15          9.5990    14.5950    21.1030 h1         1 A1B       0.078200
     40 H2          11.6650     8.2990    24.2170 hc         1 A1B       0.039033
     41 H3          10.8200     8.5500    22.6980 hc         1 A1B       0.039033
     42 H1          11.9860     9.7390    23.2590 hc         1 A1B       0.039033
     43 H16          8.9810    13.1360    26.1320 h1         1 A1B       0.059200
     44 H17          7.7860    13.0140    24.8460 h1         1 A1B       0.059200
     45 H20          5.3890    10.9430    26.9650 hc         1 A1B       0.052700
     46 H21          5.7690    11.3540    25.3020 hc         1 A1B       0.052700
@<TRIPOS>BOND
     1     1    16 1   
     2     1    19 1   
     3     1    21 1   
     4     2     8 1   
     5     2    23 1   
     6     2    24 1   
     7     3     4 1   
     8     3    16 1   
     9     3    25 1   
    10     3    26 1   
    11     4    14 1   
    12     4    15 2   
    13     5     6 1   
    14     5    14 1   
    15     5    27 1   
    16     5    28 1   
    17     6     7 1   
    18     6    29 1   
    19     6    30 1   
    20     7    12 1   
    21     7    31 1   
    22     7    32 1   
    23     8    11 2   
    24     8    12 1   
    25     9    19 1   
    26     9    20 1   
    27     9    33 1   
    28     9    34 1   
    29    10    20 1   
    30    10    21 1   
    31    10    35 1   
    32    10    36 1   
    33    12    13 1   
    34    12    37 1   
    35    13    14 1   
    36    13    38 1   
    37    13    39 1   
    38    16    17 2   
    39    17    18 1   
    40    17    22 1   
    41    18    40 1   
    42    18    41 1   
    43    18    42 1   
    44    19    43 1   
    45    19    44 1   
    46    20    45 1   
    47    20    46 1   
    48    21    22 2   
@<TRIPOS>SUBSTRUCTURE
     1 A1B         1 TEMP              0 ****  ****    0 ROOT
