@<TRIPOS>MOLECULE
A1B
   37    38     1     0     0
SMALL
abcg2


@<TRIPOS>ATOM
      1 N1          11.3730    13.8650    18.0490 nt         1 A1B      -0.605000
      2 C4          10.3080     9.9620    23.1190 ca         1 A1B      -0.147000
      3 C5          10.4760    11.3420    23.0550 ca         1 A1B      -0.068000
      4 C6           9.6430    12.2060    23.7480 ca         1 A1B      -0.125300
      5 C7           9.8030    13.7080    23.6970 c3         1 A1B       0.151300
      6 C8          10.3790    14.3150    21.3980 c6         1 A1B       0.116000
      7 C10         11.0270    14.7120    19.0270 c          1 A1B       0.608100
      8 C13         12.0710    14.4070    23.2330 c          1 A1B       0.566000
      9 O2          12.3780    14.2360    24.4060 o          1 A1B      -0.561000
     10 C12         13.1040    14.8880    22.2390 c6         1 A1B      -0.162400
     11 C11         12.5610    15.3550    20.9010 c6         1 A1B      -0.065400
     12 C9          11.5320    14.3430    20.4110 c6         1 A1B      -0.163700
     13 O1          10.3700    15.7250    18.8340 o          1 A1B      -0.600100
     14 N           10.8250    14.1500    22.7750 n          1 A1B      -0.415800
     15 C1           8.6110    11.6590    24.5270 ca         1 A1B       0.142100
     16 O            7.8390    12.5520    25.1770 os         1 A1B      -0.347100
     17 C            6.7770    12.0800    25.9800 c3         1 A1B       0.149900
     18 C3           9.2870     9.4380    23.8910 ca         1 A1B      -0.074000
     19 C2           8.4350    10.2810    24.5980 ca         1 A1B      -0.195000
     20 H13         11.1150    14.0550    17.0930 hn         1 A1B       0.316000
     21 H12         11.9240    13.0440    18.2260 hn         1 A1B       0.316000
     22 H7          11.2740    11.7470    22.4450 ha         1 A1B       0.112000
     23 H9           8.8590    14.1690    23.3920 h1         1 A1B       0.073700
     24 H8          10.0220    14.0980    24.6910 h1         1 A1B       0.073700
     25 H11          9.7070    13.4850    21.1640 h1         1 A1B       0.059200
     26 H10          9.7930    15.2350    21.3160 h1         1 A1B       0.059200
     27 H17         13.7990    14.0560    22.0870 hc         1 A1B       0.072700
     28 H16         13.6810    15.6760    22.7260 hc         1 A1B       0.072700
     29 H15         13.3800    15.4590    20.1880 hc         1 A1B       0.061200
     30 H14         12.0910    16.3370    20.9950 hc         1 A1B       0.061200
     31 H           11.9990    13.3530    20.3850 hc         1 A1B       0.056700
     32 H3           6.2930    12.9590    26.3990 h1         1 A1B       0.041033
     33 H2           6.0430    11.5170    25.3980 h1         1 A1B       0.041033
     34 H1           7.1330    11.4510    26.8000 h1         1 A1B       0.041033
     35 H5           9.1400     8.3670    23.9530 ha         1 A1B       0.111000
     36 H4           7.6440     9.8490    25.1950 ha         1 A1B       0.117000
     37 H6          10.9710     9.3090    22.5670 ha         1 A1B       0.113000
@<TRIPOS>BOND
     1     1     7 1   
     2     1    20 1   
     3     1    21 1   
     4     2     3 ar  
     5     2    18 ar  
     6     2    37 1   
     7     3     4 ar  
     8     3    22 1   
     9     4     5 1   
    10     4    15 ar  
    11     5    14 1   
    12     5    23 1   
    13     5    24 1   
    14     6    12 1   
    15     6    14 1   
    16     6    25 1   
    17     6    26 1   
    18     7    12 1   
    19     7    13 2   
    20     8     9 2   
    21     8    10 1   
    22     8    14 1   
    23    10    11 1   
    24    10    27 1   
    25    10    28 1   
    26    11    12 1   
    27    11    29 1   
    28    11    30 1   
    29    12    31 1   
    30    15    16 1   
    31    15    19 ar  
    32    16    17 1   
    33    17    32 1   
    34    17    33 1   
    35    17    34 1   
    36    18    19 ar  
    37    18    35 1   
    38    19    36 1   
@<TRIPOS>SUBSTRUCTURE
     1 A1B         1 TEMP              0 ****  ****    0 ROOT
