@<TRIPOS>MOLECULE
A1B
   60    64     1     0     0
SMALL
abcg2


@<TRIPOS>ATOM
      1 C29          2.4060    17.3500    18.8890 cc         1 A1B      -0.230500
      2 C30          1.0300    17.3930    19.0110 cd         1 A1B      -0.166000
      3 C33          2.8170    18.6300    19.3080 cc         1 A1B       0.274900
      4 C01          6.6260     8.3950    21.3830 c3         1 A1B      -0.087100
      5 C03          6.3730     7.8950    18.9280 ca         1 A1B      -0.060300
      6 C04          6.6090     8.8510    17.9420 ca         1 A1B       0.045800
      7 C05          7.2730     8.5270    16.7640 ca         1 A1B      -0.098000
      8 C06          7.7370     7.2420    16.5600 ca         1 A1B      -0.057000
      9 C07          7.5210     6.2660    17.5290 ca         1 A1B      -0.142600
     10 C08          6.8470     6.6050    18.6950 ca         1 A1B      -0.087000
     11 C09          8.0720     4.8930    17.2910 c          1 A1B       0.616700
     12 C13          5.2370    10.8570    17.4130 ca         1 A1B       0.391500
     13 C15          3.6190    11.2060    15.9290 ca         1 A1B       0.386900
     14 C16          3.4500    12.5260    16.3670 ca         1 A1B      -0.214000
     15 C17          4.2390    13.0160    17.3880 ca         1 A1B       0.111800
     16 C18          5.1690    12.1480    17.9720 ca         1 A1B      -0.270900
     17 C19          6.1100    12.1240    19.0540 cc         1 A1B       0.381900
     18 C21          6.4220    13.1710    20.0820 c3         1 A1B      -0.071000
     19 C22          7.6360    12.8090    20.9300 c3         1 A1B      -0.085100
     20 C23          5.2010    13.4200    20.9710 c3         1 A1B      -0.085100
     21 C25          2.9130    14.9670    18.1540 cd         1 A1B      -0.221000
     22 C26          3.2500    16.2610    18.4390 cc         1 A1B       0.352500
     23 C28          5.0680    15.2880    17.8760 cd         1 A1B       0.418400
     24 N11          7.4250     3.8820    17.8920 nt         1 A1B      -0.604000
     25 N12          6.1730    10.1840    18.1230 na         1 A1B       0.059100
     26 N14          4.5060    10.3640    16.4240 nb         1 A1B      -0.666000
     27 N20          6.6830    10.9500    19.1010 nd         1 A1B      -0.490100
     28 N24          4.0910    14.3480    17.8070 na         1 A1B      -0.089300
     29 N27          4.5980    16.4410    18.2520 nc         1 A1B      -0.667000
     30 N31          0.7160    18.6160    19.4690 na         1 A1B       0.131800
     31 N32          1.7880    19.3790    19.6540 nd         1 A1B      -0.531800
     32 O10          9.0610     4.7300    16.5940 o          1 A1B      -0.597100
     33 H301         0.2740    16.6520    18.8040 h4         1 A1B       0.149000
     34 H331         3.8230    19.0160    19.3680 h4         1 A1B       0.051100
     35 H012         6.0790     8.5940    22.3040 hc         1 A1B       0.040033
     36 H013         7.2370     7.5060    21.5450 hc         1 A1B       0.040033
     37 H011         7.2950     9.2350    21.1980 hc         1 A1B       0.040033
     38 H021         4.9970     7.3550    20.4430 hc         1 A1B       0.049200
     39 H022         5.0190     9.0680    20.1120 hc         1 A1B       0.049200
     40 H051         7.4410     9.2910    16.0160 ha         1 A1B       0.133000
     41 H061         8.2650     6.9990    15.6480 ha         1 A1B       0.141000
     42 H081         6.6840     5.8630    19.4690 ha         1 A1B       0.116000
     43 H151         2.9980    10.8360    15.1220 h4         1 A1B       0.029100
     44 H161         2.7180    13.1590    15.8840 ha         1 A1B       0.140000
     45 H211         6.6570    14.1030    19.5620 hc         1 A1B       0.060700
     46 H223         7.8500    13.6250    21.6200 hc         1 A1B       0.041033
     47 H222         7.4620    11.9100    21.5210 hc         1 A1B       0.041033
     48 H221         8.5250    12.6460    20.3200 hc         1 A1B       0.041033
     49 H231         5.4150    14.2090    21.6930 hc         1 A1B       0.041033
     50 H232         4.3230    13.7250    20.4020 hc         1 A1B       0.041033
     51 H233         4.9420    12.5170    21.5280 hc         1 A1B       0.041033
     52 H251         1.9780    14.4340    18.1980 h4         1 A1B       0.160000
     53 H281         6.0910    15.0740    17.6020 h5         1 A1B       0.063100
     54 H343        -0.8140    19.9910    19.1050 h1         1 A1B       0.055367
     55 H341        -1.3350    18.3600    19.5520 h1         1 A1B       0.055367
     56 H342        -0.6750    19.4440    20.7860 h1         1 A1B       0.055367
     57 H111         7.7430     2.9370    17.7510 hn         1 A1B       0.315000
     58 H112         6.5320     3.9990    18.3380 hn         1 A1B       0.315000
     59 C34         -0.6010    19.1370    19.7450 c3         1 A1B       0.074900
     60 C02          5.6600     8.1920    20.2170 c3         1 A1B      -0.028100
@<TRIPOS>BOND
     1     1     2 2   
     2     1     3 1   
     3     1    22 1   
     4     2    30 1   
     5     2    33 1   
     6     3    31 2   
     7     3    34 1   
     8     4    35 1   
     9     4    36 1   
    10     4    37 1   
    11     4    60 1   
    12     5     6 ar  
    13     5    10 ar  
    14     5    60 1   
    15     6     7 ar  
    16     6    25 1   
    17     7     8 ar  
    18     7    40 1   
    19     8     9 ar  
    20     8    41 1   
    21     9    10 ar  
    22     9    11 1   
    23    10    42 1   
    24    11    24 1   
    25    11    32 2   
    26    12    16 ar  
    27    12    25 1   
    28    12    26 ar  
    29    13    14 ar  
    30    13    26 ar  
    31    13    43 1   
    32    14    15 ar  
    33    14    44 1   
    34    15    16 ar  
    35    15    28 1   
    36    16    17 1   
    37    17    18 1   
    38    17    27 2   
    39    18    19 1   
    40    18    20 1   
    41    18    45 1   
    42    19    46 1   
    43    19    47 1   
    44    19    48 1   
    45    20    49 1   
    46    20    50 1   
    47    20    51 1   
    48    21    22 2   
    49    21    28 1   
    50    21    52 1   
    51    22    29 1   
    52    23    28 1   
    53    23    29 2   
    54    23    53 1   
    55    24    57 1   
    56    24    58 1   
    57    25    27 1   
    58    30    31 1   
    59    30    59 1   
    60    38    60 1   
    61    39    60 1   
    62    54    59 1   
    63    55    59 1   
    64    56    59 1   
@<TRIPOS>SUBSTRUCTURE
     1 A1B         1 TEMP              0 ****  ****    0 ROOT
