@<TRIPOS>MOLECULE
A1B
   35    36     1     0     0
SMALL
abcg2


@<TRIPOS>ATOM
      1 N1          10.0290    14.3590    22.5550 n          1 A1B      -0.402800
      2 C4          11.0470    15.1360    23.2430 c6         1 A1B       0.095000
      3 C5           9.5900    13.1440    22.9460 c          1 A1B       0.607100
      4 C6          10.0310    12.6640    24.3250 c3         1 A1B      -0.126100
      5 C7           9.5660    11.2640    24.5750 ca         1 A1B       0.009700
      6 C8           8.5020    11.0230    25.4350 ca         1 A1B      -0.157000
      7 C10          9.6640     8.8880    24.2740 ca         1 A1B       0.467000
      8 C11         10.1620    10.1550    23.9760 ca         1 A1B      -0.056900
      9 CL          10.3710     7.4800    23.5660 cl         1 A1B      -0.138000
     10 N2           8.6580     8.6770    25.0850 nb         1 A1B      -0.660000
     11 C9           8.0820     9.7260    25.6590 ca         1 A1B       0.367900
     12 O1           8.8480    12.4550    22.2640 o          1 A1B      -0.583100
     13 C3          12.3800    15.0000    22.5200 c6         1 A1B      -0.103400
     14 C2          12.2400    15.3980    21.0530 c6         1 A1B      -0.069400
     15 C12          9.8020    14.8090    21.1940 c6         1 A1B       0.101000
     16 C1          11.0860    14.6410    20.3780 c6         1 A1B      -0.174700
     17 C           10.8950    15.1520    18.9630 c          1 A1B       0.610100
     18 O           10.2560    16.1680    18.7260 o          1 A1B      -0.606100
     19 N           11.4970    14.4290    18.0060 nt         1 A1B      -0.606000
     20 H8          11.1270    14.8380    24.2850 h1         1 A1B       0.054200
     21 H7          10.7270    16.1820    23.2440 h1         1 A1B       0.054200
     22 H10         11.1160    12.7280    24.4350 hc         1 A1B       0.076700
     23 H9           9.6100    13.3250    25.0860 hc         1 A1B       0.076700
     24 H11          8.0040    11.8480    25.9260 ha         1 A1B       0.130000
     25 H12          7.2530     9.5180    26.3240 h4         1 A1B       0.031100
     26 H6          12.7290    13.9660    22.5990 hc         1 A1B       0.051200
     27 H5          13.1260    15.6300    23.0070 hc         1 A1B       0.051200
     28 H4          13.1740    15.2080    20.5210 hc         1 A1B       0.052700
     29 H3          12.0470    16.4730    20.9880 hc         1 A1B       0.052700
     30 H14          8.9790    14.2500    20.7560 h1         1 A1B       0.080200
     31 H13          9.5110    15.8620    21.2220 h1         1 A1B       0.080200
     32 H           11.3370    13.5750    20.3550 hc         1 A1B       0.064700
     33 H1          11.4720    14.7320    17.0460 hn         1 A1B       0.315000
     34 H2          12.0270    13.6020    18.2180 hn         1 A1B       0.315000
     35 BR          11.6030    10.3660    22.7960 br         1 A1B      -0.060100
@<TRIPOS>BOND
     1     1     2 1   
     2     1     3 1   
     3     1    15 1   
     4     2    13 1   
     5     2    20 1   
     6     2    21 1   
     7     3     4 1   
     8     3    12 2   
     9     4     5 1   
    10     4    22 1   
    11     4    23 1   
    12     5     6 ar  
    13     5     8 ar  
    14     6    11 ar  
    15     6    24 1   
    16     7     8 ar  
    17     7     9 1   
    18     7    10 ar  
    19     8    35 1   
    20    10    11 ar  
    21    11    25 1   
    22    13    14 1   
    23    13    26 1   
    24    13    27 1   
    25    14    16 1   
    26    14    28 1   
    27    14    29 1   
    28    15    16 1   
    29    15    30 1   
    30    15    31 1   
    31    16    17 1   
    32    16    32 1   
    33    17    18 2   
    34    17    19 1   
    35    19    33 1   
    36    19    34 1   
@<TRIPOS>SUBSTRUCTURE
     1 A1B         1 TEMP              0 ****  ****    0 ROOT
