@<TRIPOS>MOLECULE
A1B
   22    23     1     0     0
SMALL
abcg2


@<TRIPOS>ATOM
      1 N1           9.4800    11.2530    22.2720 nc         1 A1B      -0.509100
      2 C4           7.1520    12.9800    24.4660 ca         1 A1B      -0.065000
      3 C5           6.2270    12.3240    25.2330 ca         1 A1B       0.133000
      4 C6           6.0740    10.9280    25.2490 ca         1 A1B      -0.112000
      5 C7           6.8810    10.1350    24.4680 ca         1 A1B      -0.101000
      6 C8           7.8360    10.7840    23.6800 ca         1 A1B      -0.074200
      7 N            8.7690    10.2890    22.8230 na         1 A1B       0.098600
      8 C            8.9990     8.9020    22.4970 c3         1 A1B       0.076900
      9 O            9.2000    14.7400    22.8080 o          1 A1B      -0.603100
     10 C1           9.0430    12.4000    22.7480 cd         1 A1B       0.289900
     11 C2           9.6270    13.6930    22.3400 c          1 A1B       0.560800
     12 C3           7.9800    12.1800    23.6660 ca         1 A1B      -0.159900
     13 F            5.4110    13.0440    26.0240 f          1 A1B      -0.179000
     14 N2          10.6220    13.6230    21.4440 nt         1 A1B      -0.596000
     15 H5           7.2350    14.0570    24.4820 ha         1 A1B       0.161000
     16 H6           5.3150    10.4850    25.8800 ha         1 A1B       0.133000
     17 H7           6.7710     9.0590    24.4700 ha         1 A1B       0.124000
     18 H1           9.8670     8.8420    21.8480 h1         1 A1B       0.059033
     19 H            9.1900     8.3270    23.4010 h1         1 A1B       0.059033
     20 H2           8.1370     8.4800    21.9820 h1         1 A1B       0.059033
     21 H3          11.0920    14.4610    21.1430 hn         1 A1B       0.323500
     22 H4          10.9630    12.7400    21.1030 hn         1 A1B       0.323500
@<TRIPOS>BOND
     1     1     7 1   
     2     1    10 2   
     3     2     3 ar  
     4     2    12 ar  
     5     2    15 1   
     6     3     4 ar  
     7     3    13 1   
     8     4     5 ar  
     9     4    16 1   
    10     5     6 ar  
    11     5    17 1   
    12     6     7 1   
    13     6    12 ar  
    14     7     8 1   
    15     8    18 1   
    16     8    19 1   
    17     8    20 1   
    18     9    11 2   
    19    10    11 1   
    20    10    12 1   
    21    11    14 1   
    22    14    21 1   
    23    14    22 1   
@<TRIPOS>SUBSTRUCTURE
     1 A1B         1 TEMP              0 ****  ****    0 ROOT
