@<TRIPOS>MOLECULE
A1B
   32    34     1     0     0
SMALL
abcg2


@<TRIPOS>ATOM
      1 N1          11.7040    11.4050    22.8540 nc         1 A1B      -0.520100
      2 N3          12.3470    16.0790    18.2860 na         1 A1B      -0.302500
      3 C4          12.8940    15.4280    20.2850 cc         1 A1B       0.208300
      4 C5          13.3520    15.4950    18.9990 cd         1 A1B      -0.224000
      5 C6          11.3390    16.3350    19.1430 cd         1 A1B       0.387400
      6 C7          10.6230    12.2810    24.6210 ca         1 A1B      -0.181900
      7 C8          10.0520    13.0360    25.6560 ca         1 A1B      -0.019000
      8 C10          8.9670    11.0090    26.4480 ca         1 A1B      -0.074000
      9 O           11.9060    14.8170    23.7650 o          1 A1B      -0.591100
     10 C1          11.4940    12.5190    23.5210 cd         1 A1B       0.300900
     11 C12         10.3440    10.9070    24.5330 ca         1 A1B      -0.055200
     12 C11          9.5130    10.2440    25.4420 ca         1 A1B      -0.133000
     13 C9           9.2320    12.3900    26.5530 ca         1 A1B      -0.151000
     14 N           11.0210    10.4420    23.4500 na         1 A1B       0.089600
     15 C           11.0590     9.0840    22.9660 c3         1 A1B       0.078900
     16 N2          12.9300    13.7300    22.0550 ns         1 A1B      -0.489900
     17 C3          13.6010    14.8740    21.4780 c3         1 A1B       0.089700
     18 N4          11.6350    15.9560    20.3590 nc         1 A1B      -0.646000
     19 H7          14.2800    15.1850    18.5480 h4         1 A1B       0.156000
     20 H8          10.4160    16.7990    18.8280 h5         1 A1B       0.056100
     21 H9          10.2500    14.0940    25.7460 ha         1 A1B       0.144000
     22 H11          8.3190    10.5410    27.1760 ha         1 A1B       0.111000
     23 H12          9.3090     9.1840    25.3640 ha         1 A1B       0.118000
     24 H10          8.7790    12.9500    27.3610 ha         1 A1B       0.115000
     25 H2          11.6560     9.0600    22.0600 h1         1 A1B       0.055367
     26 H1          11.5070     8.4240    23.7070 h1         1 A1B       0.055367
     27 H3          10.0530     8.7320    22.7390 h1         1 A1B       0.055367
     28 H4          12.9960    12.8510    21.5640 hn         1 A1B       0.325500
     29 H5          13.7020    15.6340    22.2520 h1         1 A1B       0.063200
     30 H6          14.6110    14.5750    21.1930 h1         1 A1B       0.063200
     31 C2          12.1200    13.7970    23.1230 c          1 A1B       0.561800
     32 H           12.3550    16.2830    17.2990 hn         1 A1B       0.351000
@<TRIPOS>BOND
     1     1    10 2   
     2     1    14 1   
     3     2     4 1   
     4     2     5 1   
     5     2    32 1   
     6     3     4 2   
     7     3    17 1   
     8     3    18 1   
     9     4    19 1   
    10     5    18 2   
    11     5    20 1   
    12     6     7 ar  
    13     6    10 1   
    14     6    11 ar  
    15     7    13 ar  
    16     7    21 1   
    17     8    12 ar  
    18     8    13 ar  
    19     8    22 1   
    20     9    31 2   
    21    10    31 1   
    22    11    12 ar  
    23    11    14 1   
    24    12    23 1   
    25    13    24 1   
    26    14    15 1   
    27    15    25 1   
    28    15    26 1   
    29    15    27 1   
    30    16    17 1   
    31    16    28 1   
    32    16    31 1   
    33    17    29 1   
    34    17    30 1   
@<TRIPOS>SUBSTRUCTURE
     1 A1B         1 TEMP              0 ****  ****    0 ROOT
