@<TRIPOS>MOLECULE
A1B
   38    39     1     0     0
SMALL
abcg2


@<TRIPOS>ATOM
      1 N1           9.8970    14.4990    22.2560 n          1 A1B      -0.409800
      2 C4           8.6110    11.3180    25.4050 ca         1 A1B      -0.166000
      3 C5           9.2600    11.4720    24.1820 ca         1 A1B      -0.014000
      4 C6           9.4960    13.2070    22.4550 c          1 A1B       0.648100
      5 C7          10.9170    15.1680    23.0540 c6         1 A1B       0.097000
      6 C8          12.2870    15.0150    22.4050 c6         1 A1B      -0.107400
      7 C10         11.1370    14.8410    20.1670 c6         1 A1B      -0.178700
      8 C13          9.6240    10.3360    23.4570 ca         1 A1B      -0.116000
      9 C11         11.0740    15.4320    18.7720 c          1 A1B       0.612100
     10 N2          11.7750    14.7680    17.8400 nt         1 A1B      -0.607000
     11 C9          12.2730    15.5030    20.9600 c6         1 A1B      -0.069400
     12 C12          9.8150    15.0370    20.9100 c6         1 A1B       0.107000
     13 O            9.0580    12.5040    21.5580 o          1 A1B      -0.614100
     14 N            9.5850    12.7650    23.7580 ns         1 A1B      -0.162000
     15 C3           8.3310    10.0480    25.8870 ca         1 A1B      -0.083000
     16 C2           8.6770     8.9240    25.1540 ca         1 A1B      -0.133000
     17 C1           9.3270     9.0620    23.9280 ca         1 A1B      -0.053300
     18 C            9.6960     7.8500    23.1230 c3         1 A1B      -0.047800
     19 H9          10.6490    16.2260    23.1240 h1         1 A1B       0.053700
     20 H8          10.9430    14.7910    24.0730 h1         1 A1B       0.053700
     21 H10         13.0240    15.5780    22.9820 hc         1 A1B       0.051700
     22 H11         12.5880    13.9640    22.4440 hc         1 A1B       0.051700
     23 H           11.3390    13.7670    20.0980 hc         1 A1B       0.068700
     24 H18         10.1580    10.4370    22.5230 ha         1 A1B       0.129000
     25 H15         11.8390    15.1230    16.8990 hn         1 A1B       0.314500
     26 H14         12.2870    13.9300    18.0560 hn         1 A1B       0.314500
     27 H12         12.1330    16.5880    20.9450 hc         1 A1B       0.050700
     28 H13         13.2350    15.2990    20.4860 hc         1 A1B       0.050700
     29 H16          9.5960    16.1040    20.9930 h1         1 A1B       0.078700
     30 H17          8.9870    14.5770    20.3770 h1         1 A1B       0.078700
     31 H7           9.5620    13.4610    24.4860 hn         1 A1B       0.149000
     32 H5           7.8300     9.9410    26.8410 ha         1 A1B       0.112000
     33 H4           8.4500     7.9360    25.5360 ha         1 A1B       0.112000
     34 H2           8.8160     7.4200    22.6410 hc         1 A1B       0.042700
     35 H3          10.4130     8.0900    22.3390 hc         1 A1B       0.042700
     36 H1          10.1300     7.0710    23.7510 hc         1 A1B       0.042700
     37 O1          10.4490    16.4550    18.5300 o          1 A1B      -0.607100
     38 H6           8.3260    12.1920    25.9800 ha         1 A1B       0.109000
@<TRIPOS>BOND
     1     1     4 1   
     2     1     5 1   
     3     1    12 1   
     4     2     3 ar  
     5     2    15 ar  
     6     2    38 1   
     7     3     8 ar  
     8     3    14 1   
     9     4    13 2   
    10     4    14 1   
    11     5     6 1   
    12     5    19 1   
    13     5    20 1   
    14     6    11 1   
    15     6    21 1   
    16     6    22 1   
    17     7     9 1   
    18     7    11 1   
    19     7    12 1   
    20     7    23 1   
    21     8    17 ar  
    22     8    24 1   
    23     9    10 1   
    24     9    37 2   
    25    10    25 1   
    26    10    26 1   
    27    11    27 1   
    28    11    28 1   
    29    12    29 1   
    30    12    30 1   
    31    14    31 1   
    32    15    16 ar  
    33    15    32 1   
    34    16    17 ar  
    35    16    33 1   
    36    17    18 1   
    37    18    34 1   
    38    18    35 1   
    39    18    36 1   
@<TRIPOS>SUBSTRUCTURE
     1 A1B         1 TEMP              0 ****  ****    0 ROOT
