@<TRIPOS>MOLECULE
A1B
   42    44     1     0     0
SMALL
abcg2


@<TRIPOS>ATOM
      1 N1           9.6420    11.1760    24.7220 na         1 A1B      -0.171600
      2 N3          11.4220    14.3680    18.0350 nt         1 A1B      -0.605000
      3 C4           6.0950    10.4080    26.5930 ca         1 A1B      -0.135000
      4 C5           6.5330    11.7380    26.6470 ca         1 A1B      -0.094000
      5 C6           7.7190    12.1350    26.0500 ca         1 A1B      -0.113000
      6 C7           8.4470    11.1500    25.3950 ca         1 A1B      -0.066200
      7 C8          10.4080    12.3460    24.4140 c3         1 A1B      -0.003400
      8 C10         11.7510    14.6510    23.3340 c6         1 A1B       0.095000
      9 C13         11.4270    14.4400    20.4510 c6         1 A1B      -0.172700
     10 C15         10.2660    14.6950    21.4170 c6         1 A1B       0.101000
     11 C14         11.1590    15.1120    19.1180 c          1 A1B       0.610100
     12 C12         12.7360    14.9730    21.0510 c6         1 A1B      -0.068400
     13 C11         12.9660    14.4080    22.4480 c6         1 A1B      -0.101400
     14 N2          10.5590    14.1010    22.7090 n          1 A1B      -0.406800
     15 C9           9.9370    12.9720    23.0970 c          1 A1B       0.576100
     16 O            9.0310    12.4490    22.4690 o          1 A1B      -0.570100
     17 C1           9.8620     9.9120    24.2520 cc         1 A1B       0.434800
     18 C           11.0500     9.5700    23.4310 c3         1 A1B      -0.113400
     19 C2           8.0210     9.8150    25.3240 ca         1 A1B       0.077400
     20 N            8.9270     9.0730    24.6040 nd         1 A1B      -0.572100
     21 C3           6.8280     9.4340    25.9350 ca         1 A1B      -0.049000
     22 H17         11.3030    14.7500    17.1100 hn         1 A1B       0.315500
     23 H16         11.7480    13.4190    18.1050 hn         1 A1B       0.315500
     24 H5           5.1630    10.1400    27.0730 ha         1 A1B       0.112000
     25 H6           5.9320    12.4730    27.1660 ha         1 A1B       0.110000
     26 H7           8.0490    13.1650    26.0940 ha         1 A1B       0.113000
     27 H8          10.3090    13.0570    25.2360 h1         1 A1B       0.075200
     28 H9          11.4660    12.0850    24.3610 h1         1 A1B       0.075200
     29 H10         11.5960    15.7260    23.4710 h1         1 A1B       0.054200
     30 H11         11.9030    14.2330    24.3260 h1         1 A1B       0.054200
     31 H           11.5230    13.3580    20.3110 hc         1 A1B       0.059700
     32 H18         10.1270    15.7700    21.5560 h1         1 A1B       0.080200
     33 H19          9.3350    14.2880    21.0300 h1         1 A1B       0.080200
     34 H14         12.6860    16.0640    21.1050 hc         1 A1B       0.055700
     35 H15         13.5750    14.7230    20.3990 hc         1 A1B       0.055700
     36 H12         13.8440    14.8720    22.9020 hc         1 A1B       0.049700
     37 H13         13.1600    13.3330    22.3940 hc         1 A1B       0.049700
     38 H2          11.0520     8.5030    23.2220 hc         1 A1B       0.056700
     39 H3          11.0410    10.1060    22.4800 hc         1 A1B       0.056700
     40 H1          11.9810     9.8220    23.9420 hc         1 A1B       0.056700
     41 H4           6.4860     8.4080    25.8920 ha         1 A1B       0.127000
     42 O1          10.7500    16.2630    19.0530 o          1 A1B      -0.605100
@<TRIPOS>BOND
     1     1     6 1   
     2     1     7 1   
     3     1    17 1   
     4     2    11 1   
     5     2    22 1   
     6     2    23 1   
     7     3     4 ar  
     8     3    21 ar  
     9     3    24 1   
    10     4     5 ar  
    11     4    25 1   
    12     5     6 ar  
    13     5    26 1   
    14     6    19 ar  
    15     7    15 1   
    16     7    27 1   
    17     7    28 1   
    18     8    13 1   
    19     8    14 1   
    20     8    29 1   
    21     8    30 1   
    22     9    10 1   
    23     9    11 1   
    24     9    12 1   
    25     9    31 1   
    26    10    14 1   
    27    10    32 1   
    28    10    33 1   
    29    11    42 2   
    30    12    13 1   
    31    12    34 1   
    32    12    35 1   
    33    13    36 1   
    34    13    37 1   
    35    14    15 1   
    36    15    16 2   
    37    17    18 1   
    38    17    20 2   
    39    18    38 1   
    40    18    39 1   
    41    18    40 1   
    42    19    20 1   
    43    19    21 ar  
    44    21    41 1   
@<TRIPOS>SUBSTRUCTURE
     1 A1B         1 TEMP              0 ****  ****    0 ROOT
