@<TRIPOS>MOLECULE
A1B
   36    36     1     0     0
SMALL
abcg2


@<TRIPOS>ATOM
      1 N1          11.7770    14.2820    17.3010 nt         1 A1B      -0.611000
      2 C4           8.2730    11.5310    25.6480 ca         1 A1B      -0.146000
      3 C5           9.1020    12.5900    25.2900 ca         1 A1B      -0.063000
      4 C6          10.0840    12.4480    24.3240 ca         1 A1B      -0.100300
      5 C7          10.9780    13.5890    23.9500 c3         1 A1B      -0.097100
      6 C8          10.6450    14.1630    22.5790 c          1 A1B       0.606100
      7 C10         11.3240    15.5630    20.7290 c3         1 A1B       0.111000
      8 O2          11.7310    16.4070    18.0510 o          1 A1B      -0.610100
      9 C12         11.8030    15.2070    18.2740 c          1 A1B       0.609100
     10 C11         11.9530    14.6550    19.6760 c3         1 A1B      -0.188400
     11 N           11.5270    15.0550    22.0730 n          1 A1B      -0.417800
     12 C9          12.7930    15.3590    22.7120 c3         1 A1B       0.089300
     13 O1           9.6210    13.8530    21.9890 o          1 A1B      -0.589100
     14 C1          10.2390    11.2010    23.6990 ca         1 A1B       0.156100
     15 O           11.2120    11.1320    22.7700 os         1 A1B      -0.347100
     16 C           11.4460     9.9040    22.1140 c3         1 A1B       0.150900
     17 C3           8.4380    10.3080    25.0230 ca         1 A1B      -0.068000
     18 C2           9.4180    10.1350    24.0510 ca         1 A1B      -0.197000
     19 H17         11.7320    14.5590    16.3340 hn         1 A1B       0.313000
     20 H16         11.8330    13.2990    17.5010 hn         1 A1B       0.313000
     21 H6           8.9830    13.5530    25.7740 ha         1 A1B       0.112000
     22 H7          10.8770    14.3880    24.6900 hc         1 A1B       0.064200
     23 H8          12.0260    13.2830    23.9840 hc         1 A1B       0.064200
     24 H13         10.2570    15.6700    20.5450 h1         1 A1B       0.073200
     25 H12         11.7600    16.5590    20.6750 h1         1 A1B       0.073200
     26 H14         13.0250    14.5450    19.8730 hc         1 A1B       0.062700
     27 H15         11.5260    13.6520    19.7420 hc         1 A1B       0.062700
     28 H10         13.1840    16.2830    22.2930 h1         1 A1B       0.037700
     29 H11         12.6750    15.5180    23.7820 h1         1 A1B       0.037700
     30 H9          13.5420    14.5780    22.5580 h1         1 A1B       0.037700
     31 H1          12.2740    10.0720    21.4300 h1         1 A1B       0.039033
     32 H           11.7240     9.1120    22.8150 h1         1 A1B       0.039033
     33 H2          10.5760     9.5750    21.5400 h1         1 A1B       0.039033
     34 H4           7.8050     9.4700    25.2880 ha         1 A1B       0.110000
     35 H3           9.5230     9.1670    23.5790 ha         1 A1B       0.115000
     36 H5           7.5130    11.6660    26.4060 ha         1 A1B       0.116000
@<TRIPOS>BOND
     1     1     9 1   
     2     1    19 1   
     3     1    20 1   
     4     2     3 ar  
     5     2    17 ar  
     6     2    36 1   
     7     3     4 ar  
     8     3    21 1   
     9     4     5 1   
    10     4    14 ar  
    11     5     6 1   
    12     5    22 1   
    13     5    23 1   
    14     6    11 1   
    15     6    13 2   
    16     7    10 1   
    17     7    11 1   
    18     7    24 1   
    19     7    25 1   
    20     8     9 2   
    21     9    10 1   
    22    10    26 1   
    23    10    27 1   
    24    11    12 1   
    25    12    28 1   
    26    12    29 1   
    27    12    30 1   
    28    14    15 1   
    29    14    18 ar  
    30    15    16 1   
    31    16    31 1   
    32    16    32 1   
    33    16    33 1   
    34    17    18 ar  
    35    17    34 1   
    36    18    35 1   
@<TRIPOS>SUBSTRUCTURE
     1 A1B         1 TEMP              0 ****  ****    0 ROOT
