@<TRIPOS>MOLECULE
A1B
   37    39     1     0     0
SMALL
abcg2


@<TRIPOS>ATOM
      1 N1          12.5810    13.3360    22.7280 ns         1 A1B      -0.493900
      2 N3          10.4430     9.9040    22.9610 na         1 A1B       0.090600
      3 C4          12.9840    15.0620    21.0100 c3         1 A1B      -0.118700
      4 C5          13.2900    14.5540    22.4250 c3         1 A1B       0.103000
      5 C6          11.4050    13.2900    23.3780 c          1 A1B       0.554800
      6 C7          10.7520    11.9650    23.4040 cc         1 A1B       0.295900
      7 C10          8.2810     9.4940    24.1610 ca         1 A1B      -0.131000
      8 C13          8.5650    12.2510    24.8310 ca         1 A1B      -0.021000
      9 O1          10.8830    14.2470    23.9350 o          1 A1B      -0.591100
     10 C14          9.5320    11.6090    24.0440 ca         1 A1B      -0.182900
     11 C12          7.4860    11.5130    25.2620 ca         1 A1B      -0.148000
     12 C11          7.3470    10.1490    24.9300 ca         1 A1B      -0.072000
     13 C9           9.3740    10.2500    23.7260 ca         1 A1B      -0.055200
     14 N2          11.2570    10.9280    22.7710 nd         1 A1B      -0.523100
     15 C3          11.5400    15.3590    20.8260 cc         1 A1B       0.236300
     16 C1          10.5580    14.5640    20.3400 cd         1 A1B       0.112300
     17 C           10.5150    13.2000    19.7690 c3         1 A1B      -0.115400
     18 N           10.9760    16.5520    21.2470 nc         1 A1B      -0.670000
     19 C2           9.7230    16.4260    21.0050 cd         1 A1B       0.438900
     20 O            9.3900    15.2540    20.4560 os         1 A1B      -0.261000
     21 H8          12.8950    12.4910    22.2750 hn         1 A1B       0.322500
     22 H5          13.3130    14.3150    20.2850 hc         1 A1B       0.056200
     23 H4          13.5760    15.9620    20.8280 hc         1 A1B       0.056200
     24 H7          14.3600    14.3670    22.5200 h1         1 A1B       0.065200
     25 H6          13.0290    15.3100    23.1640 h1         1 A1B       0.065200
     26 H10         11.6430     8.6740    21.8240 h1         1 A1B       0.056700
     27 H9          10.8100     7.8540    23.1530 h1         1 A1B       0.056700
     28 H11          9.9110     8.3250    21.6990 h1         1 A1B       0.056700
     29 H12          8.1700     8.4480    23.9070 ha         1 A1B       0.119000
     30 H15          8.6630    13.2960    25.0900 ha         1 A1B       0.143000
     31 H14          6.7250    11.9850    25.8690 ha         1 A1B       0.117000
     32 H13          6.4830     9.6070    25.2900 ha         1 A1B       0.113000
     33 H           10.0750    13.1940    18.7710 hc         1 A1B       0.055033
     34 H1          11.5240    12.7990    19.6940 hc         1 A1B       0.055033
     35 H2           9.9340    12.5190    20.3930 hc         1 A1B       0.055033
     36 H3           8.9320    17.1390    21.1820 h5         1 A1B       0.081100
     37 C8          10.7120     8.6120    22.3780 c3         1 A1B       0.077900
@<TRIPOS>BOND
     1     1     4 1   
     2     1     5 1   
     3     1    21 1   
     4     2    13 1   
     5     2    14 1   
     6     2    37 1   
     7     3     4 1   
     8     3    15 1   
     9     3    22 1   
    10     3    23 1   
    11     4    24 1   
    12     4    25 1   
    13     5     6 1   
    14     5     9 2   
    15     6    10 1   
    16     6    14 2   
    17     7    12 ar  
    18     7    13 ar  
    19     7    29 1   
    20     8    10 ar  
    21     8    11 ar  
    22     8    30 1   
    23    10    13 ar  
    24    11    12 ar  
    25    11    31 1   
    26    12    32 1   
    27    15    16 2   
    28    15    18 1   
    29    16    17 1   
    30    16    20 1   
    31    17    33 1   
    32    17    34 1   
    33    17    35 1   
    34    18    19 2   
    35    19    20 1   
    36    19    36 1   
    37    26    37 1   
    38    27    37 1   
    39    28    37 1   
@<TRIPOS>SUBSTRUCTURE
     1 A1B         1 TEMP              0 ****  ****    0 ROOT
