@<TRIPOS>MOLECULE
A1B
   42    43     1     0     0
SMALL
abcg2


@<TRIPOS>ATOM
      1 N1          24.0850    13.4240    14.8150 nt         1 A1B      -0.605000
      2 C4          28.1890     9.0960     7.4340 ca         1 A1B      -0.104000
      3 C5          28.5830    10.3610     7.0310 ca         1 A1B      -0.112000
      4 C6          27.7980    11.4550     7.3690 ca         1 A1B      -0.092000
      5 C7          26.6280    11.3060     8.1040 ca         1 A1B      -0.069300
      6 C8          25.8220    12.5250     8.4470 c3         1 A1B      -0.111100
      7 C10         24.1660    14.5850     9.6200 c6         1 A1B       0.096000
      8 C13         24.1300    13.9380    12.4520 c6         1 A1B      -0.171700
      9 C15         25.3750    14.4370    11.7090 c6         1 A1B       0.099000
     10 O1          24.2760    15.5810    14.1870 o          1 A1B      -0.607100
     11 C14         24.1730    14.3970    13.8970 c          1 A1B       0.609100
     12 C12         22.8660    14.4570    11.7590 c6         1 A1B      -0.067400
     13 C11         22.8740    14.1100    10.2740 c6         1 A1B      -0.102400
     14 N           25.3130    14.0300    10.3190 n          1 A1B      -0.410800
     15 C9          26.0760    13.0060     9.8730 c          1 A1B       0.601100
     16 O           26.9500    12.4970    10.5590 o          1 A1B      -0.588100
     17 C2          26.2210    10.0250     8.5100 ca         1 A1B      -0.052300
     18 C1          24.9490     9.8520     9.3050 c3         1 A1B      -0.033100
     19 C           24.5570     8.4210     9.6370 c3         1 A1B      -0.088100
     20 C3          27.0170     8.9370     8.1640 ca         1 A1B      -0.110000
     21 H18         24.0960    13.6430    15.7980 hn         1 A1B       0.315000
     22 H19         24.0110    12.4550    14.5560 hn         1 A1B       0.315000
     23 H8          29.4910    10.4980     6.4570 ha         1 A1B       0.113000
     24 H9          28.1000    12.4480     7.0550 ha         1 A1B       0.109000
     25 H10         26.0730    13.3380     7.7590 hc         1 A1B       0.062700
     26 H11         24.7560    12.3350     8.3010 hc         1 A1B       0.062700
     27 H12         24.2310    15.6760     9.6800 h1         1 A1B       0.054200
     28 H13         24.1920    14.3300     8.5650 h1         1 A1B       0.054200
     29 H           24.1290    12.8430    12.4060 hc         1 A1B       0.057700
     30 H20         25.4180    15.5290    11.7530 h1         1 A1B       0.076700
     31 H21         26.2850    14.0510    12.1620 h1         1 A1B       0.076700
     32 H16         22.8120    15.5430    11.8770 hc         1 A1B       0.055200
     33 H17         21.9770    14.0410    12.2390 hc         1 A1B       0.055200
     34 H14         22.0210    14.5730     9.7750 hc         1 A1B       0.048700
     35 H15         22.7790    13.0280    10.1380 hc         1 A1B       0.048700
     36 H5          24.1240    10.3200     8.7590 hc         1 A1B       0.045200
     37 H4          25.0330    10.4180    10.2380 hc         1 A1B       0.045200
     38 H3          23.6180     8.4140    10.1910 hc         1 A1B       0.034367
     39 H2          24.4130     7.8200     8.7390 hc         1 A1B       0.034367
     40 H1          25.3050     7.9240    10.2570 hc         1 A1B       0.034367
     41 H6          26.7260     7.9390     8.4650 ha         1 A1B       0.111000
     42 H7          28.7860     8.2290     7.1800 ha         1 A1B       0.111000
@<TRIPOS>BOND
     1     1    11 1   
     2     1    21 1   
     3     1    22 1   
     4     2     3 ar  
     5     2    20 ar  
     6     2    42 1   
     7     3     4 ar  
     8     3    23 1   
     9     4     5 ar  
    10     4    24 1   
    11     5     6 1   
    12     5    17 ar  
    13     6    15 1   
    14     6    25 1   
    15     6    26 1   
    16     7    13 1   
    17     7    14 1   
    18     7    27 1   
    19     7    28 1   
    20     8     9 1   
    21     8    11 1   
    22     8    12 1   
    23     8    29 1   
    24     9    14 1   
    25     9    30 1   
    26     9    31 1   
    27    10    11 2   
    28    12    13 1   
    29    12    32 1   
    30    12    33 1   
    31    13    34 1   
    32    13    35 1   
    33    14    15 1   
    34    15    16 2   
    35    17    18 1   
    36    17    20 ar  
    37    18    19 1   
    38    18    36 1   
    39    18    37 1   
    40    19    38 1   
    41    19    39 1   
    42    19    40 1   
    43    20    41 1   
@<TRIPOS>SUBSTRUCTURE
     1 A1B         1 TEMP              0 ****  ****    0 ROOT
