@<TRIPOS>MOLECULE
A1B
   51    53     1     0     0
SMALL
abcg2


@<TRIPOS>ATOM
      1 N1          11.6250    15.9140    18.5960 nt         1 A1B      -0.613000
      2 C4           5.6380    11.8990    24.6570 ca         1 A1B      -0.140000
      3 C5           6.8610    12.4880    24.3660 ca         1 A1B       0.171000
      4 C6           8.0210    11.7580    24.1590 ca         1 A1B      -0.098300
      5 C7           9.3300    12.4210    23.8650 c3         1 A1B      -0.101100
      6 C8           9.4670    12.7410    22.3810 c          1 A1B       0.609100
      7 C10         10.3680    15.4350    20.6190 c6         1 A1B      -0.182700
      8 C13         11.1780    15.5780    23.0000 c6         1 A1B      -0.183700
      9 C15         14.3340    16.8840    24.6200 cx         1 A1B       0.046700
     10 C17         15.6600    16.2240    24.8060 cx         1 A1B      -0.134400
     11 C14         12.0520    16.3170    24.0000 c          1 A1B       0.606100
     12 N2          13.3800    16.2160    23.7980 ns         1 A1B      -0.487900
     13 C16         14.6940    16.2960    25.9480 cx         1 A1B      -0.134400
     14 C12         11.2780    16.1890    21.5940 c6         1 A1B      -0.060400
     15 C11         10.4360    16.0110    19.2130 c          1 A1B       0.612100
     16 O2           9.4630    16.5270    18.6840 o          1 A1B      -0.589100
     17 C9          10.6880    13.9350    20.6490 c6         1 A1B       0.098000
     18 C18         11.4850    14.0770    22.9280 c6         1 A1B       0.105000
     19 N           10.5650    13.4410    22.0070 n          1 A1B      -0.410800
     20 O1           8.6400    12.3490    21.5760 o          1 A1B      -0.573100
     21 C1           7.9210    10.3580    24.2160 ca         1 A1B       0.167100
     22 O            9.0560     9.6830    23.9700 os         1 A1B      -0.344100
     23 C            9.0420     8.2700    24.0380 c3         1 A1B       0.149900
     24 C3           5.5790    10.5200    24.7320 ca         1 A1B      -0.058000
     25 C2           6.7070     9.7430    24.5120 ca         1 A1B      -0.199000
     26 H13         11.7440    16.2910    17.6690 hn         1 A1B       0.312000
     27 H12         12.4410    15.5290    19.0400 hn         1 A1B       0.312000
     28 H7           4.7570    12.5040    24.8190 ha         1 A1B       0.133000
     29 H8           9.4180    13.3360    24.4540 hc         1 A1B       0.076700
     30 H9          10.1620    11.7860    24.1730 hc         1 A1B       0.076700
     31 H            9.3320    15.5600    20.9460 hc         1 A1B       0.100700
     32 H1          10.1490    15.6880    23.3550 hc         1 A1B       0.096700
     33 H17         14.3280    17.9670    24.5460 h1         1 A1B       0.090700
     34 H20         16.5370    16.8570    24.8270 hc         1 A1B       0.077450
     35 H21         15.8150    15.2610    24.3360 hc         1 A1B       0.077450
     36 H16         13.7230    15.7460    22.9750 hn         1 A1B       0.313500
     37 H18         14.9010    16.9790    26.7620 hc         1 A1B       0.077450
     38 H19         14.1910    15.3840    26.2420 hc         1 A1B       0.077450
     39 H15         12.3150    16.1360    21.2460 hc         1 A1B       0.049200
     40 H14         11.0050    17.2460    21.6210 hc         1 A1B       0.049200
     41 H10         11.7110    13.7480    20.3100 h1         1 A1B       0.065700
     42 H11         10.0220    13.3780    19.9960 h1         1 A1B       0.065700
     43 H23         12.5000    13.9030    22.5580 h1         1 A1B       0.054700
     44 H22         11.4340    13.6180    23.9120 h1         1 A1B       0.054700
     45 H3          10.0550     7.9440    23.8150 h1         1 A1B       0.042700
     46 H2           8.7660     7.9120    25.0330 h1         1 A1B       0.042700
     47 H4           8.3610     7.8330    23.3030 h1         1 A1B       0.042700
     48 H6           4.6380    10.0370    24.9610 ha         1 A1B       0.117000
     49 H5           6.6230     8.6670    24.5620 ha         1 A1B       0.121000
     50 O3          11.5770    16.9590    24.9230 o          1 A1B      -0.579100
     51 CL           6.9180    14.2200    24.2370 cl         1 A1B      -0.203000
@<TRIPOS>BOND
     1     1    15 1   
     2     1    26 1   
     3     1    27 1   
     4     2     3 ar  
     5     2    24 ar  
     6     2    28 1   
     7     3     4 ar  
     8     3    51 1   
     9     4     5 1   
    10     4    21 ar  
    11     5     6 1   
    12     5    29 1   
    13     5    30 1   
    14     6    19 1   
    15     6    20 2   
    16     7    14 1   
    17     7    15 1   
    18     7    17 1   
    19     7    31 1   
    20     8    11 1   
    21     8    14 1   
    22     8    18 1   
    23     8    32 1   
    24     9    10 1   
    25     9    12 1   
    26     9    13 1   
    27     9    33 1   
    28    10    13 1   
    29    10    34 1   
    30    10    35 1   
    31    11    12 1   
    32    11    50 2   
    33    12    36 1   
    34    13    37 1   
    35    13    38 1   
    36    14    39 1   
    37    14    40 1   
    38    15    16 2   
    39    17    19 1   
    40    17    41 1   
    41    17    42 1   
    42    18    19 1   
    43    18    43 1   
    44    18    44 1   
    45    21    22 1   
    46    21    25 ar  
    47    22    23 1   
    48    23    45 1   
    49    23    46 1   
    50    23    47 1   
    51    24    25 ar  
    52    24    48 1   
    53    25    49 1   
@<TRIPOS>SUBSTRUCTURE
     1 A1B         1 TEMP              0 ****  ****    0 ROOT
