@<TRIPOS>MOLECULE
A1B
   38    40     1     0     0
SMALL
abcg2


@<TRIPOS>ATOM
      1 N1          10.0550    14.2170    22.6220 n          1 A1B      -0.399800
      2 C4          11.3490    14.5800    23.1890 c6         1 A1B       0.094000
      3 C5           9.2860    13.2030    23.1180 c          1 A1B       0.645100
      4 C6           8.6900    11.9560    25.1020 ca         1 A1B      -0.024000
      5 C7           7.6590    12.2870    25.9940 ca         1 A1B      -0.118000
      6 C8           7.0150    11.2630    26.6380 ca         1 A1B       0.067100
      7 C10          8.3330     9.5770    25.5310 ca         1 A1B      -0.081000
      8 C13          9.9890    14.4810    21.1970 c6         1 A1B       0.102000
      9 C11          9.0150    10.6200    24.8940 ca         1 A1B       0.126000
     10 C9           7.3400     9.9360    26.4040 ca         1 A1B       0.053100
     11 O2           6.5330     9.1380    27.1390 os         1 A1B      -0.338100
     12 C12          5.7930    10.0000    27.9940 c5         1 A1B       0.374600
     13 O3           5.9960    11.3270    27.5230 os         1 A1B      -0.339100
     14 N2           9.4090    12.9820    24.4720 ns         1 A1B      -0.166000
     15 O1           8.5220    12.5430    22.4320 o          1 A1B      -0.610100
     16 C3          12.4600    13.7750    22.5260 c6         1 A1B      -0.108400
     17 C2          12.4350    13.9550    21.0120 c6         1 A1B      -0.067400
     18 C1          11.0420    13.6620    20.4410 c6         1 A1B      -0.177700
     19 C           10.9900    13.9970    18.9620 c          1 A1B       0.610100
     20 O           11.1180    15.1460    18.5620 o          1 A1B      -0.611100
     21 N           10.8000    12.9550    18.1390 nt         1 A1B      -0.604000
     22 H8          11.3690    14.4380    24.2670 h1         1 A1B       0.054200
     23 H7          11.5020    15.6490    23.0160 h1         1 A1B       0.054200
     24 H10          7.3900    13.3230    26.1550 ha         1 A1B       0.139000
     25 H11          8.5910     8.5430    25.3490 ha         1 A1B       0.150000
     26 H15          8.9870    14.2690    20.8290 h1         1 A1B       0.076200
     27 H14         10.1740    15.5470    21.0470 h1         1 A1B       0.076200
     28 H13          4.7330     9.7490    27.9450 h2         1 A1B       0.067700
     29 H12          6.1630     9.9100    29.0210 h2         1 A1B       0.067700
     30 H9           9.6850    13.7500    25.0630 hn         1 A1B       0.155000
     31 H6          12.3410    12.7200    22.7870 hc         1 A1B       0.053200
     32 H5          13.4260    14.0940    22.9240 hc         1 A1B       0.053200
     33 H4          13.1760    13.3050    20.5410 hc         1 A1B       0.054200
     34 H3          12.7140    14.9850    20.7670 hc         1 A1B       0.054200
     35 H           10.8180    12.6010    20.5900 hc         1 A1B       0.067700
     36 H1          10.7480    13.0940    17.1430 hn         1 A1B       0.315500
     37 H2          10.6700    12.0200    18.4840 hn         1 A1B       0.315500
     38 CL          10.3260    10.2080    23.8450 cl         1 A1B      -0.181000
@<TRIPOS>BOND
     1     1     2 1   
     2     1     3 1   
     3     1     8 1   
     4     2    16 1   
     5     2    22 1   
     6     2    23 1   
     7     3    14 1   
     8     3    15 2   
     9     4     5 ar  
    10     4     9 ar  
    11     4    14 1   
    12     5     6 ar  
    13     5    24 1   
    14     6    10 ar  
    15     6    13 1   
    16     7     9 ar  
    17     7    10 ar  
    18     7    25 1   
    19     8    18 1   
    20     8    26 1   
    21     8    27 1   
    22     9    38 1   
    23    10    11 1   
    24    11    12 1   
    25    12    13 1   
    26    12    28 1   
    27    12    29 1   
    28    14    30 1   
    29    16    17 1   
    30    16    31 1   
    31    16    32 1   
    32    17    18 1   
    33    17    33 1   
    34    17    34 1   
    35    18    19 1   
    36    18    35 1   
    37    19    20 2   
    38    19    21 1   
    39    21    36 1   
    40    21    37 1   
@<TRIPOS>SUBSTRUCTURE
     1 A1B         1 TEMP              0 ****  ****    0 ROOT
