@<TRIPOS>MOLECULE
A1B
   36    37     1     0     0
SMALL
abcg2


@<TRIPOS>ATOM
      1 N1          11.6350    13.9180    18.2260 nt         1 A1B      -0.607000
      2 C4           8.0890    11.4120    25.7950 ca         1 A1B      -0.104000
      3 C5           8.8080    12.2830    24.9910 ca         1 A1B      -0.122000
      4 C6           9.7730    11.8010    24.1130 ca         1 A1B      -0.049000
      5 C8          12.3190    13.9870    22.4400 ca         1 A1B      -0.167600
      6 C10         13.8990    15.7240    21.9230 ca         1 A1B      -0.132000
      7 C13         12.3640    14.9980    20.2380 ca         1 A1B      -0.164600
      8 C15         11.8340    14.0810    21.1400 ca         1 A1B      -0.065000
      9 O1          11.4030    16.1570    18.3980 o          1 A1B      -0.595100
     10 C14         11.7630    15.0890    18.8670 c          1 A1B       0.617700
     11 C11         13.4050    15.8510    20.6260 ca         1 A1B      -0.001300
     12 C12         14.0160    16.8620    19.7010 c3         1 A1B      -0.056800
     13 C9          13.3760    14.8080    22.8190 ca         1 A1B      -0.038000
     14 O           12.4760    12.5110    24.2890 o          1 A1B      -0.577100
     15 N           10.4570    12.7220    23.2850 ns         1 A1B      -0.166000
     16 C1          10.0320    10.4300    24.0170 ca         1 A1B      -0.057300
     17 C           11.0360     9.8780    23.0510 c3         1 A1B      -0.046800
     18 C3           8.3490    10.0510    25.7280 ca         1 A1B      -0.108000
     19 C2           9.3080     9.5740    24.8460 ca         1 A1B      -0.105000
     20 H14         11.2270    13.8870    17.3050 hn         1 A1B       0.316000
     21 H13         12.0270    13.0650    18.5870 hn         1 A1B       0.316000
     22 H6           8.6240    13.3490    25.0410 ha         1 A1B       0.115000
     23 H9          14.7180    16.3590    22.2380 ha         1 A1B       0.121000
     24 H15         11.0340    13.4270    20.8120 ha         1 A1B       0.117000
     25 H12         14.2310    16.4420    18.7190 hc         1 A1B       0.054700
     26 H11         13.3500    17.7110    19.5480 hc         1 A1B       0.054700
     27 H10         14.9490    17.2400    20.1150 hc         1 A1B       0.054700
     28 H8          13.7850    14.7410    23.8180 ha         1 A1B       0.137000
     29 H7           9.8910    13.3380    22.7220 hn         1 A1B       0.157000
     30 H1          11.0030    10.3990    22.0940 hc         1 A1B       0.046033
     31 H2          12.0530     9.9750    23.4350 hc         1 A1B       0.046033
     32 H           10.8540     8.8200    22.8680 hc         1 A1B       0.046033
     33 H4           7.7990     9.3590    26.3520 ha         1 A1B       0.114000
     34 H3           9.4940     8.5090    24.7860 ha         1 A1B       0.113000
     35 C7          11.7740    13.0070    23.4240 c          1 A1B       0.616700
     36 H5           7.3390    11.7970    26.4730 ha         1 A1B       0.115000
@<TRIPOS>BOND
     1     1    10 1   
     2     1    20 1   
     3     1    21 1   
     4     2     3 ar  
     5     2    18 ar  
     6     2    36 1   
     7     3     4 ar  
     8     3    22 1   
     9     4    15 1   
    10     4    16 ar  
    11     5     8 ar  
    12     5    13 ar  
    13     5    35 1   
    14     6    11 ar  
    15     6    13 ar  
    16     6    23 1   
    17     7     8 ar  
    18     7    10 1   
    19     7    11 ar  
    20     8    24 1   
    21     9    10 2   
    22    11    12 1   
    23    12    25 1   
    24    12    26 1   
    25    12    27 1   
    26    13    28 1   
    27    14    35 2   
    28    15    29 1   
    29    15    35 1   
    30    16    17 1   
    31    16    19 ar  
    32    17    30 1   
    33    17    31 1   
    34    17    32 1   
    35    18    19 ar  
    36    18    33 1   
    37    19    34 1   
@<TRIPOS>SUBSTRUCTURE
     1 A1B         1 TEMP              0 ****  ****    0 ROOT
