@<TRIPOS>MOLECULE
A1B
   59    62     1     0     0
SMALL
abcg2


@<TRIPOS>ATOM
      1 C02        -31.6120   -40.1840   -79.9910 cc         1 A1B       0.389300
      2 C04        -30.5940   -38.2550   -79.8630 cd         1 A1B       0.308900
      3 C05        -31.8100   -37.8630   -79.3850 cc         1 A1B      -0.316900
      4 C06        -32.3010   -36.5340   -78.9960 ce         1 A1B       0.719800
      5 C11        -30.2330   -35.8800   -77.7780 ca         1 A1B       0.294000
      6 C12        -30.1670   -36.9550   -76.8980 ca         1 A1B      -0.140000
      7 C13        -29.0260   -37.1430   -76.1300 ca         1 A1B      -0.089000
      8 C14        -27.9680   -36.2520   -76.1980 ca         1 A1B      -0.103000
      9 C15        -28.0350   -35.1540   -77.0540 ca         1 A1B      -0.063300
     10 C16        -29.1630   -34.9850   -77.8440 ca         1 A1B      -0.147000
     11 C17        -26.9020   -34.1630   -77.1060 c3         1 A1B       0.207100
     12 C19        -25.5170   -32.7100   -75.7400 c3         1 A1B       0.163800
     13 C20        -25.3050   -32.2090   -74.3120 c3         1 A1B      -0.042100
     14 C21        -24.0880   -31.3360   -74.1810 ca         1 A1B      -0.045300
     15 C22        -24.2040   -29.9610   -74.3650 ca         1 A1B      -0.115000
     16 C23        -23.1080   -29.1170   -74.2710 ca         1 A1B      -0.095000
     17 C24        -21.8450   -29.6310   -73.9890 cp         1 A1B      -0.036000
     18 C25        -21.7290   -31.0100   -73.8140 ca         1 A1B      -0.099000
     19 C26        -22.8200   -31.8660   -73.9080 ca         1 A1B      -0.079300
     20 C27        -22.6100   -33.3370   -73.6470 c3         1 A1B       0.193100
     21 C31        -20.6660   -28.7490   -73.8660 cp         1 A1B      -0.032000
     22 C32        -20.7770   -27.4870   -73.2780 ca         1 A1B      -0.100500
     23 C33        -19.6710   -26.6600   -73.1520 ca         1 A1B      -0.111000
     24 C34        -18.4280   -27.0780   -73.6110 ca         1 A1B      -0.108000
     25 C35        -18.3040   -28.3300   -74.1980 ca         1 A1B      -0.111000
     26 C36        -19.4120   -29.1550   -74.3250 ca         1 A1B      -0.100500
     27 N03        -30.4920   -39.5670   -80.2050 nd         1 A1B      -0.636000
     28 N07        -31.3590   -35.6250   -78.5740 nu         1 A1B      -0.969200
     29 N08        -33.5430   -36.2960   -79.1560 n2         1 A1B      -0.819100
     30 N18        -26.6510   -33.6100   -75.7890 n7         1 A1B      -0.866400
     31 N28        -23.0810   -33.6910   -72.3130 n8         1 A1B      -0.993200
     32 S01        -32.8760   -39.2090   -79.3730 ss         1 A1B       0.063600
     33 H1         -31.7670   -41.2370   -80.1860 h5         1 A1B       0.052100
     34 H2         -29.7410   -37.6020   -79.9850 h4         1 A1B       0.051100
     35 H3         -30.9990   -37.6390   -76.7950 ha         1 A1B       0.121000
     36 H4         -28.9780   -37.9870   -75.4540 ha         1 A1B       0.116000
     37 H5         -27.0920   -36.4000   -75.5780 ha         1 A1B       0.129000
     38 H6         -29.2210   -34.1410   -78.5220 ha         1 A1B       0.113000
     39 H7         -25.9900   -34.6720   -77.4340 h1         1 A1B       0.037200
     40 H8         -27.1150   -33.3980   -77.8670 h1         1 A1B       0.037200
     41 H9         -24.6300   -33.2590   -76.0730 h1         1 A1B       0.029700
     42 H10        -25.6170   -31.8480   -76.4200 h1         1 A1B       0.029700
     43 H11        -26.1890   -31.6420   -74.0050 hc         1 A1B       0.064700
     44 H12        -25.2350   -33.0660   -73.6430 hc         1 A1B       0.064700
     45 H13        -25.1770   -29.5380   -74.5870 ha         1 A1B       0.111000
     46 H14        -23.2410   -28.0550   -74.4350 ha         1 A1B       0.115000
     47 H15        -20.7610   -31.4360   -73.5740 ha         1 A1B       0.110000
     48 H16        -23.1710   -33.9320   -74.3710 h1         1 A1B       0.034700
     49 H17        -21.5520   -33.5740   -73.8160 h1         1 A1B       0.034700
     50 H18        -21.7330   -27.1530   -72.8940 ha         1 A1B       0.113000
     51 H19        -19.7780   -25.6880   -72.6870 ha         1 A1B       0.112500
     52 H20        -17.5640   -26.4340   -73.5110 ha         1 A1B       0.113000
     53 H21        -17.3430   -28.6650   -74.5660 ha         1 A1B       0.112500
     54 H22        -19.3010   -30.1200   -74.8050 ha         1 A1B       0.113000
     55 H23        -31.6480   -34.6580   -78.6160 hn         1 A1B       0.483000
     56 H24        -33.7920   -35.3640   -78.8350 hn         1 A1B       0.381400
     57 H25        -27.4810   -33.1150   -75.4800 hn         1 A1B       0.411000
     58 H27        -22.9600   -34.6870   -72.1710 hn         1 A1B       0.395000
     59 H28        -22.4950   -33.2390   -71.6220 hn         1 A1B       0.395000
@<TRIPOS>BOND
     1     1    27 2   
     2     1    32 1   
     3     1    33 1   
     4     2     3 2   
     5     2    27 1   
     6     2    34 1   
     7     3     4 1   
     8     3    32 1   
     9     4    28 1   
    10     4    29 2   
    11     5     6 ar  
    12     5    10 ar  
    13     5    28 1   
    14     6     7 ar  
    15     6    35 1   
    16     7     8 ar  
    17     7    36 1   
    18     8     9 ar  
    19     8    37 1   
    20     9    10 ar  
    21     9    11 1   
    22    10    38 1   
    23    11    30 1   
    24    11    39 1   
    25    11    40 1   
    26    12    13 1   
    27    12    30 1   
    28    12    41 1   
    29    12    42 1   
    30    13    14 1   
    31    13    43 1   
    32    13    44 1   
    33    14    15 ar  
    34    14    19 ar  
    35    15    16 ar  
    36    15    45 1   
    37    16    17 ar  
    38    16    46 1   
    39    17    18 ar  
    40    17    21 1   
    41    18    19 ar  
    42    18    47 1   
    43    19    20 1   
    44    20    31 1   
    45    20    48 1   
    46    20    49 1   
    47    21    22 ar  
    48    21    26 ar  
    49    22    23 ar  
    50    22    50 1   
    51    23    24 ar  
    52    23    51 1   
    53    24    25 ar  
    54    24    52 1   
    55    25    26 ar  
    56    25    53 1   
    57    26    54 1   
    58    28    55 1   
    59    29    56 1   
    60    30    57 1   
    61    31    58 1   
    62    31    59 1   
@<TRIPOS>SUBSTRUCTURE
     1 A1B         1 TEMP              0 ****  ****    0 ROOT
