@<TRIPOS>MOLECULE
A1B
   57    60     1     0     0
SMALL
abcg2


@<TRIPOS>ATOM
      1 C02         18.2000   245.5150    30.9970 cc         1 A1B       0.113900
      2 C03         17.7870   244.6730    30.0260 cd         1 A1B      -0.149000
      3 C04         18.9790   244.1190    29.4540 cd         1 A1B      -0.275900
      4 C05         20.0100   244.6730    30.1420 cc         1 A1B       0.147900
      5 C06         19.1060   243.2020    28.3090 cf         1 A1B       0.717800
      6 C11         17.3540   241.6390    29.1500 ca         1 A1B       0.307000
      7 C12         17.8060   241.4650    30.4600 ca         1 A1B      -0.141000
      8 C13         16.9870   240.8430    31.3890 ca         1 A1B      -0.089000
      9 C14         15.7360   240.3600    31.0260 ca         1 A1B      -0.133000
     10 C15         15.2880   240.5030    29.7180 ca         1 A1B      -0.065300
     11 C16         16.1010   241.1490    28.7920 ca         1 A1B      -0.129000
     12 C17         13.9410   239.9830    29.2930 c3         1 A1B       0.205100
     13 C19         12.7720   238.6420    27.6590 c3         1 A1B       0.159800
     14 C20         12.9410   237.7260    26.4490 c3         1 A1B      -0.031100
     15 C21         11.6100   237.2760    25.9190 ca         1 A1B      -0.101300
     16 C22         10.9370   236.1970    26.4860 ca         1 A1B      -0.080000
     17 C23          9.6740   235.8270    26.0520 ca         1 A1B      -0.149000
     18 C24          9.0530   236.5190    25.0140 ca         1 A1B       0.285000
     19 C25          9.7310   237.5800    24.4160 ca         1 A1B      -0.149000
     20 C26         10.9840   237.9540    24.8770 ca         1 A1B      -0.080000
     21 C28          6.7180   236.9410    24.3320 ce         1 A1B       0.716800
     22 C32          4.2630   236.7420    23.8500 cd         1 A1B       0.192900
     23 C33          5.5240   236.2350    23.8440 cc         1 A1B      -0.241900
     24 C34          5.4100   234.9220    23.2790 cc         1 A1B      -0.175000
     25 C35          4.1000   234.7520    22.9950 cd         1 A1B       0.115900
     26 N07         18.1280   242.2520    28.1610 nu         1 A1B      -0.929200
     27 N08         20.0150   243.2810    27.4160 n2         1 A1B      -0.843100
     28 N18         14.0560   239.1110    28.1390 n7         1 A1B      -0.863400
     29 N27          7.7920   236.1090    24.5660 nu         1 A1B      -0.962200
     30 N29          6.6620   238.2050    24.4860 n2         1 A1B      -0.833100
     31 O01         19.5490   245.5140    31.0780 os         1 A1B      -0.230000
     32 O31          3.3990   235.8530    23.3420 os         1 A1B      -0.234000
     33 H1          17.6730   246.1550    31.6860 h4         1 A1B       0.057100
     34 H2          16.7670   244.4760    29.7390 ha         1 A1B       0.155000
     35 H3          21.0790   244.5410    30.0830 h4         1 A1B       0.058100
     36 H4          18.7930   241.7980    30.7510 ha         1 A1B       0.122000
     37 H5          17.3420   240.7130    32.4030 ha         1 A1B       0.113000
     38 H6          15.1140   239.8610    31.7590 ha         1 A1B       0.111000
     39 H7          15.7540   241.2750    27.7730 ha         1 A1B       0.130000
     40 H8          13.3010   240.8260    29.0110 h1         1 A1B       0.037700
     41 H9          13.4480   239.5010    30.1510 h1         1 A1B       0.037700
     42 H10         12.1750   239.5120    27.3680 h1         1 A1B       0.033200
     43 H11         12.1910   238.1140    28.4320 h1         1 A1B       0.033200
     44 H12         13.5420   236.8580    26.7380 hc         1 A1B       0.054200
     45 H13         13.4970   238.2580    25.6750 hc         1 A1B       0.054200
     46 H14         11.4010   235.6380    27.2910 ha         1 A1B       0.114500
     47 H15          9.1650   234.9940    26.5210 ha         1 A1B       0.120500
     48 H16          9.2970   238.1050    23.5750 ha         1 A1B       0.120500
     49 H17         11.4910   238.7870    24.4030 ha         1 A1B       0.114500
     50 H19          6.1940   234.2070    23.0900 ha         1 A1B       0.143000
     51 H20          3.5440   233.9390    22.5580 h4         1 A1B       0.055100
     52 H21         18.1110   241.8170    27.2500 hn         1 A1B       0.504000
     53 H22         20.5960   244.0980    27.5670 hn         1 A1B       0.392400
     54 H23         14.6290   238.3130    28.3920 hn         1 A1B       0.410000
     55 H25          7.5720   235.1380    24.7260 hn         1 A1B       0.490000
     56 H26          7.5130   238.5860    24.8860 hn         1 A1B       0.391400
     57 H18          3.8610   237.6830    24.1870 h4         1 A1B       0.071100
@<TRIPOS>BOND
     1     1     2 2   
     2     1    31 1   
     3     1    33 1   
     4     2     3 1   
     5     2    34 1   
     6     3     4 2   
     7     3     5 1   
     8     4    31 1   
     9     4    35 1   
    10     5    26 1   
    11     5    27 2   
    12     6     7 ar  
    13     6    11 ar  
    14     6    26 1   
    15     7     8 ar  
    16     7    36 1   
    17     8     9 ar  
    18     8    37 1   
    19     9    10 ar  
    20     9    38 1   
    21    10    11 ar  
    22    10    12 1   
    23    11    39 1   
    24    12    28 1   
    25    12    40 1   
    26    12    41 1   
    27    13    14 1   
    28    13    28 1   
    29    13    42 1   
    30    13    43 1   
    31    14    15 1   
    32    14    44 1   
    33    14    45 1   
    34    15    16 ar  
    35    15    20 ar  
    36    16    17 ar  
    37    16    46 1   
    38    17    18 ar  
    39    17    47 1   
    40    18    19 ar  
    41    18    29 1   
    42    19    20 ar  
    43    19    48 1   
    44    20    49 1   
    45    21    23 1   
    46    21    29 1   
    47    21    30 2   
    48    22    23 2   
    49    22    32 1   
    50    22    57 1   
    51    23    24 1   
    52    24    25 2   
    53    24    50 1   
    54    25    32 1   
    55    25    51 1   
    56    26    52 1   
    57    27    53 1   
    58    28    54 1   
    59    29    55 1   
    60    30    56 1   
@<TRIPOS>SUBSTRUCTURE
     1 A1B         1 TEMP              0 ****  ****    0 ROOT
