@<TRIPOS>MOLECULE
A1B
  149   158     1     0     0
SMALL
abcg2


@<TRIPOS>ATOM
      1 C1         -25.0140    22.3570   -46.6280 c3         1 A1B       0.092300
      2 C2         -25.0110    23.2660   -44.2930 ca         1 A1B       0.048600
      3 C3         -25.8420    24.3810   -44.5710 ca         1 A1B       0.130100
      4 C4         -26.9670    25.7120   -46.1950 c3         1 A1B       0.147900
      5 C5         -26.4190    25.0920   -43.5320 ca         1 A1B      -0.167000
      6 C6         -26.1430    24.7730   -42.2000 ca         1 A1B       0.305000
      7 C7         -26.5730    26.7930   -40.8920 ca         1 A1B       0.441900
      8 C8         -27.1570    27.4050   -39.7620 ca         1 A1B      -0.133000
      9 N9         -27.0220    47.2550   -45.7060 ns         1 A1B      -0.506900
     10 N1         -24.4500    22.4530   -45.2790 n          1 A1B      -0.276000
     11 O1         -26.0150    24.7240   -45.8580 os         1 A1B      -0.348100
     12 N2         -26.7610    25.4790   -41.1480 nu         1 A1B      -0.945900
     13 CL1        -28.1350    26.5130   -38.6500 cl         1 A1B      -0.190000
     14 C9         -26.9080    28.7440   -39.5830 ca         1 A1B       0.190900
     15 N3         -26.1560    29.4610   -40.4040 nb         1 A1B      -0.275000
     16 C10        -25.6430    28.8060   -41.4540 ca         1 A1B       0.431900
     17 N4         -24.8570    29.5040   -42.3020 nh         1 A1B      -0.768300
     18 C11        -24.2810    28.9110   -43.4900 c6         1 A1B       0.225800
     19 C12        -25.1160    29.2650   -44.7230 c6         1 A1B      -0.092900
     20 C13        -25.7400    30.6660   -44.5510 c6         1 A1B      -0.151700
     21 C14        -26.1440    31.2080   -45.9100 c          1 A1B       0.605100
     22 N5         -25.4120    32.2210   -46.4010 ns         1 A1B      -0.505900
     23 C15        -25.6970    32.9220   -47.6340 c3         1 A1B       0.097000
     24 C16        -26.2860    34.3070   -47.3940 c3         1 A1B      -0.100400
     25 C17        -27.6430    34.2810   -46.7020 c3         1 A1B      -0.065400
     26 C18        -28.1600    35.6730   -46.3480 c3         1 A1B      -0.157400
     27 C19        -28.4890    36.5060   -47.5710 c          1 A1B       0.605100
     28 N6         -27.8620    37.6910   -47.7310 n          1 A1B      -0.419800
     29 C20        -26.7340    38.1260   -46.9070 c6         1 A1B       0.107500
     30 C21        -25.9760    39.2450   -47.6020 c6         1 A1B      -0.103400
     31 C22        -28.3500    38.6350   -48.7300 c6         1 A1B       0.107500
     32 C23        -28.2930    40.0490   -48.1730 c6         1 A1B      -0.103400
     33 C24        -26.8460    40.4720   -47.8950 c6         1 A1B       0.105300
     34 N7         -26.7800    41.4490   -46.8230 na         1 A1B       0.144800
     35 C25        -26.3470    42.7240   -46.8860 cc         1 A1B      -0.120300
     36 C26        -26.4350    43.2350   -45.6130 cd         1 A1B      -0.234300
     37 C27        -26.0790    44.6390   -45.2530 c6         1 A1B       0.198300
     38 N8         -25.8630    45.3960   -46.4750 n          1 A1B      -0.436800
     39 C28        -26.4650    46.5920   -46.7580 c          1 A1B       0.653100
     40 C29        -27.6050    48.5610   -45.9040 c3         1 A1B       0.096300
     41 O2         -26.5080    47.0480   -47.8960 o          1 A1B      -0.639100
     42 C30        -25.1130    44.7090   -47.5090 c6         1 A1B       0.117000
     43 C31        -25.8660    43.4960   -48.0620 c6         1 A1B      -0.037100
     44 N10        -27.1220    41.0960   -45.5860 nc         1 A1B      -0.530800
     45 C32        -26.9270    42.1710   -44.8420 cd         1 A1B       0.492900
     46 N11        -27.1850    42.1840   -43.4700 nh         1 A1B      -0.814100
     47 C33        -28.4670    42.0560   -42.9730 ca         1 A1B       0.349000
     48 C34        -29.5790    42.0470   -43.8250 ca         1 A1B      -0.135000
     49 C35        -30.8710    41.9610   -43.3310 ca         1 A1B      -0.119300
     50 C36        -32.0280    41.8560   -44.2820 c3         1 A1B       0.228600
     51 F1         -32.5660    40.6020   -44.2070 f          1 A1B      -0.123000
     52 F2         -31.6300    42.0210   -45.5730 f          1 A1B      -0.123000
     53 C37        -31.1060    41.9020   -41.9530 ca         1 A1B      -0.009000
     54 C38        -32.4460    41.8330   -41.3560 cc         1 A1B      -0.158000
     55 C39        -32.8860    40.9190   -40.4200 cd         1 A1B      -0.153000
     56 N12        -34.1450    41.2580   -40.0930 na         1 A1B       0.133800
     57 C40        -35.0180    40.5920   -39.1580 c3         1 A1B       0.073900
     58 N13        -34.5630    42.3340   -40.7480 nd         1 A1B      -0.522800
     59 C41        -33.5500    42.6950   -41.5130 cc         1 A1B       0.246900
     60 C42        -29.9910    41.9040   -41.1200 ca         1 A1B      -0.072000
     61 C43        -28.6880    41.9620   -41.5880 ca         1 A1B      -0.136300
     62 C44        -27.5300    41.9660   -40.6300 c6         1 A1B      -0.023100
     63 C45        -26.3480    42.7100   -41.2270 c6         1 A1B      -0.090400
     64 C46        -26.0240    42.1370   -42.5910 c6         1 A1B       0.241800
     65 O3         -29.3370    36.1080   -48.3620 o          1 A1B      -0.605100
     66 O4         -27.0800    30.7000   -46.5160 o          1 A1B      -0.606100
     67 C47        -24.8220    31.5280   -43.6900 c6         1 A1B      -0.092900
     68 C48        -24.7850    30.9570   -42.2650 c6         1 A1B       0.225800
     69 N14        -25.8320    27.5090   -41.7170 nb         1 A1B      -0.316000
     70 C49        -25.2770    23.7470   -41.9150 ca         1 A1B      -0.138000
     71 C50        -24.7020    23.0020   -42.9520 ca         1 A1B      -0.045800
     72 C51        -23.7300    22.0000   -42.6340 cc         1 A1B      -0.241200
     73 C52        -23.0660    21.3660   -43.6170 cd         1 A1B       0.047900
     74 O5         -22.0930    20.4620   -43.4730 os         1 A1B      -0.268100
     75 C53        -21.7070    20.1260   -42.1660 c3         1 A1B       0.065600
     76 C54        -20.6180    19.0680   -42.2600 c          1 A1B       0.599100
     77 N15        -19.9460    18.8860   -41.1170 ns         1 A1B      -0.517900
     78 C55        -18.9250    17.8750   -40.9720 c3         1 A1B       0.098300
     79 O6         -20.4080    18.4310   -43.2760 o          1 A1B      -0.551100
     80 C56        -23.4100    21.5880   -45.0270 c          1 A1B       0.560200
     81 O7         -22.8400    20.9820   -45.9200 o          1 A1B      -0.509000
     82 H3         -24.7710    21.3780   -47.0280 h1         1 A1B       0.056367
     83 H1         -26.0930    22.4470   -46.5850 h1         1 A1B       0.056367
     84 H2         -24.6120    23.1110   -47.3000 h1         1 A1B       0.056367
     85 H6         -26.9910    25.7520   -47.2810 h1         1 A1B       0.047033
     86 H5         -27.9640    25.4600   -45.8260 h1         1 A1B       0.047033
     87 H4         -26.6860    26.6970   -45.8150 h1         1 A1B       0.047033
     88 H7         -27.0770    25.9230   -43.7400 ha         1 A1B       0.137000
     89 H35        -26.6890    47.0630   -44.7770 hn         1 A1B       0.305500
     90 H8         -27.1710    24.9210   -40.4140 hn         1 A1B       0.514000
     91 H9         -27.3330    29.2610   -38.7290 h4         1 A1B       0.030100
     92 H10        -23.2650    29.3000   -43.5970 h1         1 A1B       0.065700
     93 H11        -24.1950    27.8360   -43.3700 h1         1 A1B       0.065700
     94 H12        -24.4720    29.2330   -45.6060 hc         1 A1B       0.053700
     95 H13        -25.9050    28.5270   -44.8730 hc         1 A1B       0.053700
     96 H14        -26.6830    30.5520   -44.0080 hc         1 A1B       0.085700
     97 H15        -24.6620    32.5920   -45.8410 hn         1 A1B       0.308500
     98 H17        -24.7710    33.0110   -48.2050 h1         1 A1B       0.061200
     99 H16        -26.3810    32.3140   -48.2260 h1         1 A1B       0.061200
    100 H19        -25.5800    34.8980   -46.8000 hc         1 A1B       0.041200
    101 H18        -26.3660    34.8100   -48.3630 hc         1 A1B       0.041200
    102 H20        -28.3730    33.7630   -47.3290 hc         1 A1B       0.058700
    103 H21        -27.5730    33.7110   -45.7720 hc         1 A1B       0.058700
    104 H22        -29.1010    35.5750   -45.8000 hc         1 A1B       0.061200
    105 H23        -27.4650    36.1600   -45.6670 hc         1 A1B       0.061200
    106 H24        -27.0700    38.4590   -45.9230 h1         1 A1B       0.056700
    107 H25        -26.0440    37.2980   -46.7560 h1         1 A1B       0.056700
    108 H27        -25.1160    39.5260   -46.9920 hc         1 A1B       0.066950
    109 H26        -25.5730    38.8700   -48.5450 hc         1 A1B       0.066950
    110 H29        -27.7720    38.5620   -49.6570 h1         1 A1B       0.056700
    111 H28        -29.3770    38.3780   -48.9780 h1         1 A1B       0.056700
    112 H30        -28.7630    40.7390   -48.8740 hc         1 A1B       0.066950
    113 H31        -28.8760    40.0830   -47.2500 hc         1 A1B       0.066950
    114 H32        -26.4430    40.9740   -48.7760 h1         1 A1B       0.063700
    115 H33        -26.8920    45.0770   -44.6740 h1         1 A1B       0.052700
    116 H34        -25.1860    44.6670   -44.6170 h1         1 A1B       0.052700
    117 H38        -28.0120    48.8970   -44.9530 h1         1 A1B       0.039700
    118 H36        -26.8840    49.3060   -46.2480 h1         1 A1B       0.039700
    119 H37        -28.4230    48.5230   -46.6200 h1         1 A1B       0.039700
    120 H39        -24.8760    45.4060   -48.3070 h1         1 A1B       0.063200
    121 H40        -24.1660    44.3710   -47.0780 h1         1 A1B       0.063200
    122 H41        -26.7030    43.8190   -48.6870 hc         1 A1B       0.067700
    123 H42        -25.1960    42.9100   -48.6950 hc         1 A1B       0.067700
    124 H43        -29.4250    42.1010   -44.8920 ha         1 A1B       0.139000
    125 H44        -32.8250    42.5730   -44.0920 h2         1 A1B       0.064700
    126 H45        -32.3940    40.0640   -39.9840 h4         1 A1B       0.155000
    127 H46        -35.3280    41.2800   -38.3740 h1         1 A1B       0.056367
    128 H47        -35.9010    40.2090   -39.6660 h1         1 A1B       0.056367
    129 H48        -34.4830    39.7610   -38.7070 h1         1 A1B       0.056367
    130 H49        -33.6270    43.5730   -42.1390 h4         1 A1B       0.036100
    131 H50        -30.1450    41.8710   -40.0470 ha         1 A1B       0.110000
    132 H51        -27.8350    42.4140   -39.6820 hc         1 A1B       0.050700
    133 H52        -27.2320    40.9370   -40.4040 hc         1 A1B       0.050700
    134 H53        -26.5780    43.7750   -41.3200 hc         1 A1B       0.052200
    135 H54        -25.4710    42.6230   -40.5860 hc         1 A1B       0.052200
    136 H55        -25.2220    42.7080   -43.0600 h1         1 A1B       0.041700
    137 H56        -25.6640    41.1060   -42.4870 h1         1 A1B       0.041700
    138 H57        -23.8140    31.5620   -44.1150 hc         1 A1B       0.053700
    139 H58        -25.1770    32.5580   -43.6280 hc         1 A1B       0.053700
    140 H59        -23.8780    31.2880   -41.7480 h1         1 A1B       0.065700
    141 H60        -25.6350    31.3340   -41.7020 h1         1 A1B       0.065700
    142 H61        -25.0170    23.5140   -40.8900 ha         1 A1B       0.120000
    143 H62        -23.5200    21.8200   -41.5880 ha         1 A1B       0.188000
    144 H63        -21.3430    21.0050   -41.6200 h1         1 A1B       0.048200
    145 H64        -22.5520    19.7160   -41.5970 h1         1 A1B       0.048200
    146 H65        -20.1560    19.4670   -40.3210 hn         1 A1B       0.312500
    147 H68        -18.5610    17.8980   -39.9490 h1         1 A1B       0.042033
    148 H66        -19.3160    16.8780   -41.1740 h1         1 A1B       0.042033
    149 H67        -18.0820    18.0550   -41.6390 h1         1 A1B       0.042033
@<TRIPOS>BOND
     1     1    10 1   
     2     1    82 1   
     3     1    83 1   
     4     1    84 1   
     5     2     3 ar  
     6     2    10 1   
     7     2    71 ar  
     8     3     5 ar  
     9     3    11 1   
    10     4    11 1   
    11     4    85 1   
    12     4    86 1   
    13     4    87 1   
    14     5     6 ar  
    15     5    88 1   
    16     6    12 1   
    17     6    70 ar  
    18     7     8 ar  
    19     7    12 1   
    20     7    69 ar  
    21     8    13 1   
    22     8    14 ar  
    23     9    39 1   
    24     9    40 1   
    25     9    89 1   
    26    10    80 1   
    27    12    90 1   
    28    14    15 ar  
    29    14    91 1   
    30    15    16 ar  
    31    16    17 1   
    32    16    69 ar  
    33    17    18 1   
    34    17    68 1   
    35    18    19 1   
    36    18    92 1   
    37    18    93 1   
    38    19    20 1   
    39    19    94 1   
    40    19    95 1   
    41    20    21 1   
    42    20    67 1   
    43    20    96 1   
    44    21    22 1   
    45    21    66 2   
    46    22    23 1   
    47    22    97 1   
    48    23    24 1   
    49    23    98 1   
    50    23    99 1   
    51    24    25 1   
    52    24   100 1   
    53    24   101 1   
    54    25    26 1   
    55    25   102 1   
    56    25   103 1   
    57    26    27 1   
    58    26   104 1   
    59    26   105 1   
    60    27    28 1   
    61    27    65 2   
    62    28    29 1   
    63    28    31 1   
    64    29    30 1   
    65    29   106 1   
    66    29   107 1   
    67    30    33 1   
    68    30   108 1   
    69    30   109 1   
    70    31    32 1   
    71    31   110 1   
    72    31   111 1   
    73    32    33 1   
    74    32   112 1   
    75    32   113 1   
    76    33    34 1   
    77    33   114 1   
    78    34    35 1   
    79    34    44 1   
    80    35    36 2   
    81    35    43 1   
    82    36    37 1   
    83    36    45 1   
    84    37    38 1   
    85    37   115 1   
    86    37   116 1   
    87    38    39 1   
    88    38    42 1   
    89    39    41 2   
    90    40   117 1   
    91    40   118 1   
    92    40   119 1   
    93    42    43 1   
    94    42   120 1   
    95    42   121 1   
    96    43   122 1   
    97    43   123 1   
    98    44    45 2   
    99    45    46 1   
   100    46    47 1   
   101    46    64 1   
   102    47    48 ar  
   103    47    61 ar  
   104    48    49 ar  
   105    48   124 1   
   106    49    50 1   
   107    49    53 ar  
   108    50    51 1   
   109    50    52 1   
   110    50   125 1   
   111    53    54 1   
   112    53    60 ar  
   113    54    55 2   
   114    54    59 1   
   115    55    56 1   
   116    55   126 1   
   117    56    57 1   
   118    56    58 1   
   119    57   127 1   
   120    57   128 1   
   121    57   129 1   
   122    58    59 2   
   123    59   130 1   
   124    60    61 ar  
   125    60   131 1   
   126    61    62 1   
   127    62    63 1   
   128    62   132 1   
   129    62   133 1   
   130    63    64 1   
   131    63   134 1   
   132    63   135 1   
   133    64   136 1   
   134    64   137 1   
   135    67    68 1   
   136    67   138 1   
   137    67   139 1   
   138    68   140 1   
   139    68   141 1   
   140    70    71 ar  
   141    70   142 1   
   142    71    72 1   
   143    72    73 2   
   144    72   143 1   
   145    73    74 1   
   146    73    80 1   
   147    74    75 1   
   148    75    76 1   
   149    75   144 1   
   150    75   145 1   
   151    76    77 1   
   152    76    79 2   
   153    77    78 1   
   154    77   146 1   
   155    78   147 1   
   156    78   148 1   
   157    78   149 1   
   158    80    81 2   
@<TRIPOS>SUBSTRUCTURE
     1 A1B         1 TEMP              0 ****  ****    0 ROOT
