@<TRIPOS>MOLECULE
A1B
   37    39     1     0     0
SMALL
abcg2


@<TRIPOS>ATOM
      1 C1          -4.9580    -0.2260    13.2250 ca         1 A1B      -0.150000
      2 C2          -6.2140    -0.2910    12.6360 ca         1 A1B      -0.073000
      3 C3          -7.1490     0.7110    12.8510 ca         1 A1B      -0.149000
      4 C4          -6.8180     1.7960    13.6540 ca         1 A1B       0.141100
      5 C5          -5.5570     1.8750    14.2520 ca         1 A1B      -0.184300
      6 C6          -4.6400     0.8600    14.0320 ca         1 A1B      -0.042000
      7 C7          -5.3000     3.0850    15.1120 c5         1 A1B       0.159000
      8 C12         -6.5840     3.3700    15.8790 c5         1 A1B      -0.126400
      9 O14         -3.0450     3.8170    13.8610 o          1 A1B      -0.607100
     10 C15         -3.9100     5.6500    12.5800 c3         1 A1B      -0.113000
     11 C16         -4.5370     5.1550    11.2670 c3         1 A1B      -0.082100
     12 C17         -4.5560     6.9670    13.0260 c3         1 A1B      -0.082100
     13 C18         -2.4260     5.9260    12.3250 c3         1 A1B      -0.082100
     14 N8          -5.1870     4.2740    14.2550 n          1 A1B      -0.416800
     15 C9          -6.5200     4.8470    14.0430 c5         1 A1B       0.077000
     16 C10         -7.4410     3.8380    14.7170 c5         1 A1B       0.155300
     17 O11         -7.7580     2.7540    13.8410 os         1 A1B      -0.345100
     18 C13         -4.0180     4.5220    13.6200 c          1 A1B       0.616100
     19 H1          -4.2330    -1.0110    13.0570 ha         1 A1B       0.117000
     20 H2          -6.4740    -1.1310    12.0040 ha         1 A1B       0.113000
     21 H3          -8.1320     0.6560    12.3980 ha         1 A1B       0.125000
     22 H4          -3.6670     0.9200    14.5050 ha         1 A1B       0.125000
     23 H5          -4.4220     2.9620    15.7430 h1         1 A1B       0.099700
     24 H6          -6.4510     4.1790    16.5980 hc         1 A1B       0.073200
     25 H7          -6.9750     2.4980    16.4020 hc         1 A1B       0.073200
     26 H8          -5.6050     4.9550    11.3500 hc         1 A1B       0.040256
     27 H9          -4.4070     5.9130    10.4930 hc         1 A1B       0.040256
     28 H10         -4.0500     4.2420    10.9230 hc         1 A1B       0.040256
     29 H11         -4.2230     7.2590    14.0230 hc         1 A1B       0.040256
     30 H12         -4.2610     7.7590    12.3360 hc         1 A1B       0.040256
     31 H13         -5.6430     6.9450    13.0240 hc         1 A1B       0.040256
     32 H14         -1.9200     6.2800    13.2250 hc         1 A1B       0.040256
     33 H15         -1.8970     5.0450    11.9640 hc         1 A1B       0.040256
     34 H16         -2.3320     6.7050    11.5670 hc         1 A1B       0.040256
     35 H17         -6.6260     5.8110    14.5440 h1         1 A1B       0.059200
     36 H18         -6.7660     4.9810    12.9920 h1         1 A1B       0.059200
     37 H19         -8.3940     4.2820    14.9990 h1         1 A1B       0.094700
@<TRIPOS>BOND
     1     1     2 ar  
     2     1     6 ar  
     3     1    19 1   
     4     2     3 ar  
     5     2    20 1   
     6     3     4 ar  
     7     3    21 1   
     8     4     5 ar  
     9     4    17 1   
    10     5     6 ar  
    11     5     7 1   
    12     6    22 1   
    13     7     8 1   
    14     7    14 1   
    15     7    23 1   
    16     8    16 1   
    17     8    24 1   
    18     8    25 1   
    19     9    18 2   
    20    10    11 1   
    21    10    12 1   
    22    10    13 1   
    23    10    18 1   
    24    11    26 1   
    25    11    27 1   
    26    11    28 1   
    27    12    29 1   
    28    12    30 1   
    29    12    31 1   
    30    13    32 1   
    31    13    33 1   
    32    13    34 1   
    33    14    15 1   
    34    14    18 1   
    35    15    16 1   
    36    15    35 1   
    37    15    36 1   
    38    16    17 1   
    39    16    37 1   
@<TRIPOS>SUBSTRUCTURE
     1 A1B         1 TEMP              0 ****  ****    0 ROOT
