@<TRIPOS>MOLECULE
A1B
   37    39     1     0     0
SMALL
abcg2


@<TRIPOS>ATOM
      1 C11        -14.3940    -2.6410   -41.8410 c3         1 A1B      -0.056800
      2 C02        -14.1070     0.2510   -39.3850 ca         1 A1B       0.615900
      3 C03        -14.5720    -0.5840   -40.4480 ca         1 A1B      -0.206000
      4 C04        -13.9310    -1.7480   -40.7350 ca         1 A1B       0.003700
      5 C05        -12.7960    -2.1000   -39.9390 ca         1 A1B      -0.101000
      6 C06        -12.0480    -3.2730   -40.1490 ca         1 A1B      -0.126000
      7 C07        -10.9820    -3.5480   -39.3430 ca         1 A1B       0.159000
      8 C08        -10.5910    -2.7100   -38.2840 cp         1 A1B      -0.046000
      9 C09        -11.3150    -1.5540   -38.0940 ca         1 A1B      -0.070000
     10 C10        -12.4190    -1.2150   -38.9030 ca         1 A1B       0.311000
     11 C21         -9.4470    -3.0440   -37.4100 cp         1 A1B      -0.045000
     12 C22         -9.3640    -4.2840   -36.7730 ca         1 A1B      -0.082000
     13 C23         -8.3030    -4.5570   -35.9280 ca         1 A1B      -0.116000
     14 C24         -7.3120    -3.6060   -35.7140 ca         1 A1B      -0.103000
     15 C25         -7.3780    -2.3640   -36.3350 ca         1 A1B      -0.092300
     16 C26         -8.4510    -2.0990   -37.1830 ca         1 A1B      -0.067000
     17 C27         -6.3190    -1.3190   -36.0900 c3         1 A1B       0.198100
     18 F12        -10.2590    -4.6570   -39.5830 f          1 A1B      -0.178000
     19 N01        -13.0730    -0.0570   -38.6420 nb         1 A1B      -0.754000
     20 N28         -5.8750    -0.7080   -37.3320 n8         1 A1B      -0.998200
     21 H1         -13.6120    -2.7800   -42.5910 hc         1 A1B       0.050033
     22 H2         -14.6540    -3.6310   -41.4650 hc         1 A1B       0.050033
     23 H3         -15.2690    -2.2290   -42.3410 hc         1 A1B       0.050033
     24 H4         -15.4390    -0.2770   -41.0210 ha         1 A1B       0.119000
     25 H5         -12.2980    -3.9580   -40.9490 ha         1 A1B       0.129000
     26 H6         -11.0480    -0.8810   -37.2880 ha         1 A1B       0.137000
     27 H7         -10.1390    -5.0260   -36.9180 ha         1 A1B       0.119000
     28 H8          -8.2440    -5.5180   -35.4320 ha         1 A1B       0.113000
     29 H9          -6.4800    -3.8340   -35.0580 ha         1 A1B       0.108000
     30 H10         -8.5010    -1.1420   -37.6880 ha         1 A1B       0.132000
     31 H11         -5.5110    -1.7700   -35.4990 h1         1 A1B       0.033700
     32 H12         -6.7440    -0.5290   -35.4640 h1         1 A1B       0.033700
     33 H13        -14.3320     2.0660   -38.5100 hn         1 A1B       0.477000
     34 H14        -15.3870     1.7840   -39.8110 hn         1 A1B       0.477000
     35 H15         -5.2480     0.0590   -37.1230 hn         1 A1B       0.396500
     36 H16         -5.3330    -1.3770   -37.8640 hn         1 A1B       0.396500
     37 N02        -14.7870     1.3930   -39.1040 nv         1 A1B      -1.066900
@<TRIPOS>BOND
     1     1     4 1   
     2     1    21 1   
     3     1    22 1   
     4     1    23 1   
     5     2     3 ar  
     6     2    19 ar  
     7     2    37 1   
     8     3     4 ar  
     9     3    24 1   
    10     4     5 ar  
    11     5     6 ar  
    12     5    10 ar  
    13     6     7 ar  
    14     6    25 1   
    15     7     8 ar  
    16     7    18 1   
    17     8     9 ar  
    18     8    11 1   
    19     9    10 ar  
    20     9    26 1   
    21    10    19 ar  
    22    11    12 ar  
    23    11    16 ar  
    24    12    13 ar  
    25    12    27 1   
    26    13    14 ar  
    27    13    28 1   
    28    14    15 ar  
    29    14    29 1   
    30    15    16 ar  
    31    15    17 1   
    32    16    30 1   
    33    17    20 1   
    34    17    31 1   
    35    17    32 1   
    36    20    35 1   
    37    20    36 1   
    38    33    37 1   
    39    34    37 1   
@<TRIPOS>SUBSTRUCTURE
     1 A1B         1 TEMP              0 ****  ****    0 ROOT
