@<TRIPOS>MOLECULE
A1B
   17    18     1     0     0
SMALL
abcg2


@<TRIPOS>ATOM
      1 C4          22.3130     4.2650   -29.0200 ca         1 A1B      -0.097500
      2 C5          23.5190     4.9120   -29.2480 ca         1 A1B      -0.099000
      3 C6          24.2550     5.4030   -28.1780 ca         1 A1B      -0.097500
      4 C7          23.7980     5.2420   -26.8790 ca         1 A1B      -0.098500
      5 N1          21.2510     3.6710   -23.5380 nc         1 A1B      -0.382000
      6 N2          21.7370     4.9000   -23.3490 nc         1 A1B      -0.043000
      7 C3          21.8340     4.1120   -27.7280 ca         1 A1B      -0.098500
      8 N3          22.2530     5.3620   -24.4160 nd         1 A1B      -0.198800
      9 C1          21.4910     3.3800   -24.7880 cd         1 A1B       0.388400
     10 N4          22.1140     4.4230   -25.3460 na         1 A1B       0.014500
     11 C2          22.5880     4.5960   -26.6690 ca         1 A1B      -0.003200
     12 H1          21.7310     3.8870   -29.8510 ha         1 A1B       0.124000
     13 H2          23.8860     5.0350   -30.2590 ha         1 A1B       0.123000
     14 H3          25.1960     5.9070   -28.3500 ha         1 A1B       0.124000
     15 H4          24.3800     5.6060   -26.0430 ha         1 A1B       0.133500
     16 H5          20.8790     3.6320   -27.5530 ha         1 A1B       0.133500
     17 H6          21.2530     2.4620   -25.3010 h5         1 A1B       0.077100
@<TRIPOS>BOND
     1     1     2 ar  
     2     1     7 ar  
     3     1    12 1   
     4     2     3 ar  
     5     2    13 1   
     6     3     4 ar  
     7     3    14 1   
     8     4    11 ar  
     9     4    15 1   
    10     5     6 1   
    11     5     9 2   
    12     6     8 2   
    13     7    11 ar  
    14     7    16 1   
    15     8    10 1   
    16     9    10 1   
    17     9    17 1   
    18    10    11 1   
@<TRIPOS>SUBSTRUCTURE
     1 A1B         1 TEMP              0 ****  ****    0 ROOT
