@<TRIPOS>MOLECULE
A1B
   70    74     1     0     0
SMALL
abcg2


@<TRIPOS>ATOM
      1 C4          24.7970   -18.0780    53.3490 c6         1 A1B      -0.087400
      2 C5          23.3140   -18.0010    53.7220 c6         1 A1B       0.163000
      3 C7          23.8010   -16.1100    55.2180 c6         1 A1B       0.092000
      4 C10         22.2100   -19.5090    55.8760 c          1 A1B       0.529100
      5 N12         23.1250   -20.4890    56.0030 ns         1 A1B      -0.137000
      6 C13         22.8670   -21.8540    55.7600 ca         1 A1B      -0.162000
      7 C20         23.6580   -22.5630    54.8550 ca         1 A1B      -0.063000
      8 C21         22.4190   -17.2330    52.7600 ca         1 A1B      -0.101300
      9 C22         21.0840   -17.0040    53.1350 ca         1 A1B      -0.083000
     10 C24         20.6590   -15.8750    51.0880 ca         1 A1B      -0.175000
     11 C26         21.3140   -14.9910    48.9040 cc         1 A1B       0.413200
     12 C28         21.9810   -16.1010    50.6860 ca         1 A1B       0.088400
     13 C1          26.0550   -16.9240    56.0230 c3         1 A1B      -0.084100
     14 C14         21.8480   -22.5400    56.3920 ca         1 A1B       0.403900
     15 C16         22.3380   -24.4920    55.2940 ca         1 A1B       0.594900
     16 C18         23.4250   -23.8980    54.6110 ca         1 A1B      -0.176300
     17 C19         24.2710   -24.6920    53.6660 c3         1 A1B      -0.036800
     18 C2          25.3010   -16.1650    54.9360 c6         1 A1B      -0.081700
     19 C23         20.1970   -16.3340    52.3160 ca         1 A1B      -0.071000
     20 C29         22.8580   -16.7880    51.5260 ca         1 A1B      -0.049000
     21 C3          25.5280   -16.7510    53.5400 c6         1 A1B      -0.073400
     22 C30         21.3350   -14.3160    47.5710 c6         1 A1B      -0.085000
     23 C31         20.3970   -15.0030    46.5710 c6         1 A1B      -0.068400
     24 C32         20.4620   -14.3050    45.2220 c6         1 A1B       0.164800
     25 C35         22.7030   -13.5700    45.6200 c6         1 A1B       0.164800
     26 C36         22.7390   -14.2430    46.9830 c6         1 A1B      -0.068400
     27 N15         21.5840   -23.8180    56.1550 nb         1 A1B      -0.732000
     28 N17         22.0570   -25.8180    55.1290 nv         1 A1B      -1.050900
     29 N27         22.3090   -15.5900    49.4520 nd         1 A1B      -0.536100
     30 N33         21.8170   -14.2680    44.7090 n3         1 A1B      -0.715600
     31 N6          23.2060   -17.4300    55.0640 n          1 A1B      -0.393800
     32 O11         21.0260   -19.6720    55.6520 o          1 A1B      -0.559100
     33 O9          22.7350   -17.6930    57.2770 o          1 A1B      -0.570100
     34 S25         19.8340   -14.9930    49.8510 ss         1 A1B       0.008800
     35 H44         24.9090   -18.4400    52.3260 hc         1 A1B       0.048200
     36 H43         25.2460   -18.8450    53.9850 hc         1 A1B       0.048200
     37 H45         22.9360   -19.0250    53.7450 h1         1 A1B       0.070700
     38 H46         23.6000   -15.7460    56.2230 h1         1 A1B       0.069200
     39 H47         23.3100   -15.4260    54.5200 h1         1 A1B       0.069200
     40 H48         24.0920   -20.2180    56.1250 hn         1 A1B       0.159000
     41 H55         24.4700   -22.0580    54.3420 ha         1 A1B       0.112000
     42 H56         20.7270   -17.3670    54.0910 ha         1 A1B       0.135000
     43 H38         25.9020   -16.4650    57.0000 hc         1 A1B       0.035367
     44 H37         25.7410   -17.9680    56.0990 hc         1 A1B       0.035367
     45 H39         27.1260   -16.9230    55.8190 hc         1 A1B       0.035367
     46 H49         21.2160   -22.0460    57.1210 h4         1 A1B       0.038100
     47 H53         23.6880   -25.0810    52.8270 hc         1 A1B       0.042367
     48 H54         25.0720   -24.0810    53.2540 hc         1 A1B       0.042367
     49 H52         24.7270   -25.5510    54.1640 hc         1 A1B       0.042367
     50 H40         25.6600   -15.1310    54.9360 hc         1 A1B       0.057700
     51 H57         19.1740   -16.1740    52.6290 ha         1 A1B       0.130000
     52 H58         23.8710   -16.9510    51.1840 ha         1 A1B       0.130000
     53 H42         25.1920   -16.0260    52.7950 hc         1 A1B       0.048700
     54 H41         26.5960   -16.8980    53.3650 hc         1 A1B       0.048700
     55 H59         20.9680   -13.2920    47.7160 hc         1 A1B       0.061700
     56 H60         20.6890   -16.0510    46.4590 hc         1 A1B       0.058700
     57 H61         19.3650   -14.9880    46.9300 hc         1 A1B       0.058700
     58 H63         19.8300   -14.8370    44.5080 h1         1 A1B       0.031700
     59 H62         20.0420   -13.2870    45.3230 h1         1 A1B       0.031700
     60 H64         22.8860   -13.7270    42.9990 h1         1 A1B       0.030700
     61 H66         21.2340   -14.2690    42.7030 h1         1 A1B       0.030700
     62 H65         21.5270   -12.6480    43.3490 h1         1 A1B       0.030700
     63 H67         23.7090   -13.5610    45.1940 h1         1 A1B       0.031700
     64 H68         22.4020   -12.5130    45.7430 h1         1 A1B       0.031700
     65 H69         23.4050   -13.6880    47.6450 hc         1 A1B       0.058700
     66 H70         23.1500   -15.2500    46.8800 hc         1 A1B       0.058700
     67 H50         21.1570   -26.1190    55.4680 hn         1 A1B       0.471500
     68 H51         22.3350   -26.2630    54.2700 hn         1 A1B       0.471500
     69 C8          22.7650   -18.1110    56.1310 c          1 A1B       0.527100
     70 C34         21.8650   -13.6950    43.3830 c3         1 A1B       0.153100
@<TRIPOS>BOND
     1     1     2 1   
     2     1    21 1   
     3     1    35 1   
     4     1    36 1   
     5     2     8 1   
     6     2    31 1   
     7     2    37 1   
     8     3    18 1   
     9     3    31 1   
    10     3    38 1   
    11     3    39 1   
    12     4     5 1   
    13     4    32 2   
    14     4    69 1   
    15     5     6 1   
    16     5    40 1   
    17     6     7 ar  
    18     6    14 ar  
    19     7    16 ar  
    20     7    41 1   
    21     8     9 ar  
    22     8    20 ar  
    23     9    19 ar  
    24     9    42 1   
    25    10    12 ar  
    26    10    19 ar  
    27    10    34 1   
    28    11    22 1   
    29    11    29 2   
    30    11    34 1   
    31    12    20 ar  
    32    12    29 1   
    33    13    18 1   
    34    13    43 1   
    35    13    44 1   
    36    13    45 1   
    37    14    27 ar  
    38    14    46 1   
    39    15    16 ar  
    40    15    27 ar  
    41    15    28 1   
    42    16    17 1   
    43    17    47 1   
    44    17    48 1   
    45    17    49 1   
    46    18    21 1   
    47    18    50 1   
    48    19    51 1   
    49    20    52 1   
    50    21    53 1   
    51    21    54 1   
    52    22    23 1   
    53    22    26 1   
    54    22    55 1   
    55    23    24 1   
    56    23    56 1   
    57    23    57 1   
    58    24    30 1   
    59    24    58 1   
    60    24    59 1   
    61    25    26 1   
    62    25    30 1   
    63    25    63 1   
    64    25    64 1   
    65    26    65 1   
    66    26    66 1   
    67    28    67 1   
    68    28    68 1   
    69    30    70 1   
    70    31    69 1   
    71    33    69 2   
    72    60    70 1   
    73    61    70 1   
    74    62    70 1   
@<TRIPOS>SUBSTRUCTURE
     1 A1B         1 TEMP              0 ****  ****    0 ROOT
