@<TRIPOS>MOLECULE
A1B
   56    60     1     0     0
SMALL
abcg2


@<TRIPOS>ATOM
      1 N1          21.5210   -49.0630   -10.6770 n          1 A1B      -0.392800
      2 N3          18.9130   -42.9690   -11.4530 nb         1 A1B      -0.733000
      3 C4          23.3100   -48.2020    -9.2840 c6         1 A1B      -0.088400
      4 C5          21.8000   -48.4240    -9.3910 c6         1 A1B       0.162000
      5 C6          22.1990   -50.3340   -10.8870 c6         1 A1B       0.092000
      6 C7          20.8670   -48.4590   -11.6800 c          1 A1B       0.527100
      7 C8          20.1910   -47.1310   -11.3540 c          1 A1B       0.528100
      8 C10         19.2910   -44.2090   -11.7400 ca         1 A1B       0.404900
      9 C13         21.4210   -43.8630   -10.7470 ca         1 A1B      -0.058000
     10 C15         22.9880   -42.0650    -8.7850 cx         1 A1B      -0.128900
     11 C17         21.1630   -49.2190    -8.2610 ca         1 A1B      -0.099300
     12 C20         19.8620   -50.6230    -6.2430 ca         1 A1B      -0.180000
     13 C21         20.8890   -51.1360    -4.1130 cc         1 A1B       0.384100
     14 C22         21.1720   -50.1650    -6.0530 ca         1 A1B       0.080400
     15 C1          24.2400   -49.4080   -12.0690 c3         1 A1B      -0.084100
     16 C11         19.7600   -42.1580   -10.8290 ca         1 A1B       0.599900
     17 C12         21.0630   -42.5660   -10.4550 ca         1 A1B      -0.152300
     18 C14         21.9760   -41.6070    -9.7850 cx         1 A1B      -0.079400
     19 C16         21.7950   -41.2910    -8.3220 cx         1 A1B      -0.128900
     20 C18         19.8420   -49.6770    -8.4220 ca         1 A1B      -0.080000
     21 C19         19.1830   -50.3760    -7.4320 ca         1 A1B      -0.071000
     22 C2          23.7160   -50.1560   -10.8480 c6         1 A1B      -0.081700
     23 C23         21.8190   -49.4600    -7.0690 ca         1 A1B      -0.048000
     24 C3          24.1080   -49.4780    -9.5310 c6         1 A1B      -0.073400
     25 C9          20.5300   -44.7170   -11.3980 ca         1 A1B      -0.165000
     26 N2          20.9140   -46.0440   -11.6830 ns         1 A1B      -0.133000
     27 N5          21.7230   -50.4740    -4.8300 nd         1 A1B      -0.525100
     28 O1          20.7240   -48.9080   -12.8060 o          1 A1B      -0.570100
     29 O2          19.0630   -47.1180   -10.8970 o          1 A1B      -0.562100
     30 S           19.3400   -51.4620    -4.8260 ss         1 A1B       0.032800
     31 H7          23.5620   -47.7640    -8.3170 hc         1 A1B       0.048700
     32 H8          23.5740   -47.4450   -10.0270 hc         1 A1B       0.048700
     33 H9          21.3300   -47.4390    -9.3780 h1         1 A1B       0.071700
     34 H11         21.8760   -50.7540   -11.8370 h1         1 A1B       0.068700
     35 H10         21.8840   -51.0260   -10.1020 h1         1 A1B       0.068700
     36 H13         18.5670   -44.8190   -12.2680 h4         1 A1B       0.040100
     37 H16         22.4050   -44.2250   -10.4720 ha         1 A1B       0.114000
     38 H19         23.9520   -41.5730    -8.7840 hc         1 A1B       0.073450
     39 H24         21.1050   -51.4870    -3.1120 h5         1 A1B       0.058800
     40 H3          23.9740   -49.9280   -12.9910 hc         1 A1B       0.035700
     41 H1          23.8460   -48.3920   -12.1410 hc         1 A1B       0.035700
     42 H2          25.3270   -49.3310   -12.0330 hc         1 A1B       0.035700
     43 H17         22.2740   -40.7630   -10.4020 hc         1 A1B       0.089700
     44 H21         21.9340   -40.2670    -7.9990 hc         1 A1B       0.073450
     45 H20         21.0240   -41.8310    -7.7850 hc         1 A1B       0.073450
     46 H22         19.3180   -49.4740    -9.3460 ha         1 A1B       0.136000
     47 H23         18.1680   -50.7180    -7.5830 ha         1 A1B       0.130000
     48 H4          24.1490   -51.1600   -10.8570 hc         1 A1B       0.057700
     49 H25         22.8300   -49.1170    -6.8920 ha         1 A1B       0.131000
     50 H5          23.9470   -50.1820    -8.7100 hc         1 A1B       0.049200
     51 H6          25.1760   -49.2470    -9.5320 hc         1 A1B       0.049200
     52 H12         21.8630   -46.1850   -12.0010 hn         1 A1B       0.160000
     53 H14         18.3540   -40.7190   -10.6680 hn         1 A1B       0.473500
     54 H15         19.7960   -40.3680    -9.8570 hn         1 A1B       0.473500
     55 N4          19.3460   -40.8800   -10.5980 nv         1 A1B      -1.048900
     56 H18         23.0310   -43.1190    -8.5380 hc         1 A1B       0.073450
@<TRIPOS>BOND
     1     1     4 1   
     2     1     5 1   
     3     1     6 1   
     4     2     8 ar  
     5     2    16 ar  
     6     3     4 1   
     7     3    24 1   
     8     3    31 1   
     9     3    32 1   
    10     4    11 1   
    11     4    33 1   
    12     5    22 1   
    13     5    34 1   
    14     5    35 1   
    15     6     7 1   
    16     6    28 2   
    17     7    26 1   
    18     7    29 2   
    19     8    25 ar  
    20     8    36 1   
    21     9    17 ar  
    22     9    25 ar  
    23     9    37 1   
    24    10    18 1   
    25    10    19 1   
    26    10    38 1   
    27    10    56 1   
    28    11    20 ar  
    29    11    23 ar  
    30    12    14 ar  
    31    12    21 ar  
    32    12    30 1   
    33    13    27 2   
    34    13    30 1   
    35    13    39 1   
    36    14    23 ar  
    37    14    27 1   
    38    15    22 1   
    39    15    40 1   
    40    15    41 1   
    41    15    42 1   
    42    16    17 ar  
    43    16    55 1   
    44    17    18 1   
    45    18    19 1   
    46    18    43 1   
    47    19    44 1   
    48    19    45 1   
    49    20    21 ar  
    50    20    46 1   
    51    21    47 1   
    52    22    24 1   
    53    22    48 1   
    54    23    49 1   
    55    24    50 1   
    56    24    51 1   
    57    25    26 1   
    58    26    52 1   
    59    53    55 1   
    60    54    55 1   
@<TRIPOS>SUBSTRUCTURE
     1 A1B         1 TEMP              0 ****  ****    0 ROOT
