@<TRIPOS>MOLECULE
A1B
   57    61     1     0     0
SMALL
abcg2


@<TRIPOS>ATOM
      1 N1         -20.6090    31.3480    14.1740 nb         1 A1B      -0.723000
      2 C4         -22.0810    33.4820    15.1860 ca         1 A1B       0.035000
      3 C5         -22.7180    32.2580    14.8630 ca         1 A1B      -0.149000
      4 C6         -21.8930    31.2280    14.3670 ca         1 A1B       0.405900
      5 C7         -22.8370    34.5490    15.7080 ca         1 A1B      -0.127000
      6 C8         -24.1900    34.4060    15.9070 cp         1 A1B       0.013000
      7 C10        -24.1230    32.1030    15.0540 ca         1 A1B       0.296000
      8 C15        -15.4400    33.9450    14.0650 c5         1 A1B       0.195300
      9 C20        -26.0410    36.1220    15.7820 ca         1 A1B      -0.028300
     10 C21        -26.7360    37.1540    16.4160 ca         1 A1B       0.161000
     11 C22        -26.3460    37.5050    17.7210 ca         1 A1B       0.536300
     12 C24        -24.6680    35.9830    17.7410 ca         1 A1B       0.361900
     13 C26        -13.7880    32.2130    14.7700 c1         1 A1B       0.306900
     14 C25        -26.4140    35.7630    14.3790 c3         1 A1B      -0.051800
     15 C19        -24.9930    35.5070    16.4780 cp         1 A1B      -0.105000
     16 N23        -25.3320    36.9570    18.3480 nb         1 A1B      -0.670000
     17 N28        -27.7320    37.8600    15.7610 nu         1 A1B      -0.929200
     18 C29        -28.2830    39.0050    16.4520 c6         1 A1B       0.158800
     19 C30        -28.3070    38.7660    17.9480 c6         1 A1B       0.126600
     20 O31        -26.9990    38.4580    18.4140 os         1 A1B      -0.437300
     21 C3         -20.6920    33.5990    14.9690 ca         1 A1B      -0.177000
     22 C2         -20.0090    32.5220    14.4610 ca         1 A1B       0.484900
     23 C9         -24.7930    33.1810    15.5880 ca         1 A1B       0.068000
     24 F17        -26.1170    33.0480    15.8120 f          1 A1B      -0.185000
     25 N18        -24.7660    30.9210    14.7890 nv         1 A1B      -1.063000
     26 N11        -18.6480    32.4870    14.1770 ns         1 A1B      -0.307900
     27 C12        -17.7280    33.4660    14.3710 c          1 A1B       0.656100
     28 O14        -17.9320    34.5490    14.8660 o          1 A1B      -0.519000
     29 O13        -16.5380    33.0530    13.9280 os         1 A1B      -0.452100
     30 C34        -15.4210    35.1070    13.0680 c5         1 A1B      -0.105400
     31 C33        -13.9320    35.3350    12.7280 c5         1 A1B      -0.079400
     32 C32        -13.1430    34.3130    13.5580 c5         1 A1B      -0.073400
     33 C16        -14.1550    33.1790    13.7480 c5         1 A1B      -0.014600
     34 N27        -13.4940    31.4470    15.5760 n1         1 A1B      -0.450000
     35 H1         -22.3070    30.2540    14.1280 h4         1 A1B       0.019100
     36 H2         -22.3520    35.4890    15.9380 ha         1 A1B       0.134000
     37 H3         -15.3900    34.3180    15.0920 h1         1 A1B       0.076700
     38 H5         -26.5480    36.6670    13.7830 hc         1 A1B       0.049367
     39 H6         -25.6580    35.1500    13.8930 hc         1 A1B       0.049367
     40 H7         -27.3590    35.2160    14.3420 hc         1 A1B       0.049367
     41 H8         -28.4070    37.2920    15.2720 hn         1 A1B       0.463000
     42 H9         -27.6890    39.8980    16.2350 h1         1 A1B       0.064200
     43 H10        -29.2920    39.1930    16.0890 h1         1 A1B       0.064200
     44 H11        -28.6280    39.6550    18.4890 h1         1 A1B       0.063200
     45 H12        -28.9920    37.9470    18.1900 h1         1 A1B       0.063200
     46 H13        -20.2000    34.5280    15.2070 ha         1 A1B       0.160000
     47 H14        -25.7720    30.9640    14.7540 hn         1 A1B       0.460500
     48 H15        -24.3990    30.3640    14.0340 hn         1 A1B       0.460500
     49 H16        -18.3330    31.6150    13.7740 hn         1 A1B       0.185000
     50 H17        -15.8930    35.9920    13.4900 hc         1 A1B       0.066200
     51 H18        -15.9840    34.8290    12.1750 hc         1 A1B       0.066200
     52 H19        -13.6100    36.3520    12.9470 hc         1 A1B       0.052200
     53 H20        -13.7590    35.1680    11.6650 hc         1 A1B       0.052200
     54 H21        -12.2300    33.9740    13.0720 hc         1 A1B       0.060700
     55 H22        -12.8720    34.7270    14.5310 hc         1 A1B       0.060700
     56 H23        -14.2780    32.6360    12.8050 hc         1 A1B       0.091700
     57 H4         -23.8460    35.5390    18.2920 h4         1 A1B       0.030100
@<TRIPOS>BOND
     1     1     4 ar  
     2     1    22 ar  
     3     2     3 ar  
     4     2     5 ar  
     5     2    21 ar  
     6     3     4 ar  
     7     3     7 ar  
     8     4    35 1   
     9     5     6 ar  
    10     5    36 1   
    11     6    15 1   
    12     6    23 ar  
    13     7    23 ar  
    14     7    25 1   
    15     8    29 1   
    16     8    30 1   
    17     8    33 1   
    18     8    37 1   
    19     9    10 ar  
    20     9    14 1   
    21     9    15 ar  
    22    10    11 ar  
    23    10    17 1   
    24    11    16 ar  
    25    11    20 1   
    26    12    15 ar  
    27    12    16 ar  
    28    12    57 1   
    29    13    33 1   
    30    13    34 3   
    31    14    38 1   
    32    14    39 1   
    33    14    40 1   
    34    17    18 1   
    35    17    41 1   
    36    18    19 1   
    37    18    42 1   
    38    18    43 1   
    39    19    20 1   
    40    19    44 1   
    41    19    45 1   
    42    21    22 ar  
    43    21    46 1   
    44    22    26 1   
    45    23    24 1   
    46    25    47 1   
    47    25    48 1   
    48    26    27 1   
    49    26    49 1   
    50    27    28 2   
    51    27    29 1   
    52    30    31 1   
    53    30    50 1   
    54    30    51 1   
    55    31    32 1   
    56    31    52 1   
    57    31    53 1   
    58    32    33 1   
    59    32    54 1   
    60    32    55 1   
    61    33    56 1   
@<TRIPOS>SUBSTRUCTURE
     1 A1B         1 TEMP              0 ****  ****    0 ROOT
