@<TRIPOS>MOLECULE
A1B
   50    52     1     0     0
SMALL
abcg2


@<TRIPOS>ATOM
      1 C10        -30.6290   -41.7100   -12.3290 cg         1 A1B       0.331000
      2 C15        -37.6770   -42.0130    -7.0270 ca         1 A1B       0.407900
      3 C17        -35.8440   -41.8970    -8.3670 ca         1 A1B       0.481800
      4 C21        -38.2870   -41.9310   -11.8410 c3         1 A1B       0.213100
      5 C24        -42.5310   -40.2150    -6.4980 c3         1 A1B       0.189300
      6 C28        -44.6010   -38.8050    -6.4800 c3         1 A1B      -0.124600
      7 C01        -34.3840   -41.8370    -8.3640 cc         1 A1B      -0.151900
      8 C02        -33.5690   -41.8120    -7.2270 cd         1 A1B      -0.174000
      9 C03        -32.2400   -41.7600    -7.6140 cd         1 A1B      -0.205000
     10 C04        -32.2240   -41.7550    -9.0040 cc         1 A1B      -0.186000
     11 C06        -31.2230   -41.7230    -9.9670 cd         1 A1B       0.039000
     12 C07        -31.5940   -41.7370   -11.2900 cc         1 A1B      -0.112000
     13 C08        -32.9830   -41.7820   -11.6040 cc         1 A1B       0.347900
     14 C14        -38.5780   -41.9870    -8.0860 ca         1 A1B      -0.315600
     15 C18        -36.6290   -41.8890    -9.5060 ca         1 A1B      -0.247000
     16 C19        -38.0340   -41.9590    -9.3980 ca         1 A1B       0.426000
     17 C23        -41.8600   -41.5610    -6.2660 c3         1 A1B       0.078000
     18 C25        -43.9930   -40.1420    -6.0530 c3         1 A1B       0.160000
     19 C27        -44.0650   -40.2650    -4.5290 c3         1 A1B      -0.124600
     20 F26        -42.4400   -39.9250    -7.8600 f          1 A1B      -0.251000
     21 N05        -33.5530   -41.8010    -9.4380 na         1 A1B       0.281900
     22 N09        -33.9230   -41.8130   -10.7200 nd         1 A1B      -0.486800
     23 N11        -29.8440   -41.6900   -13.1730 n1         1 A1B      -0.443000
     24 N16        -36.3650   -41.9730    -7.1300 nb         1 A1B      -0.726000
     25 N20        -38.8000   -41.9710   -10.4970 nu         1 A1B      -0.953200
     26 N22        -40.4780   -41.5500    -6.6790 ns         1 A1B      -0.499900
     27 O13        -40.8090   -42.5200    -8.6890 o          1 A1B      -0.623100
     28 O29        -44.6620   -41.2200    -6.6790 oh         1 A1B      -0.646000
     29 H151       -38.0500   -42.0980    -6.0120 h4         1 A1B       0.009100
     30 H213       -39.1290   -41.9540   -12.5280 h1         1 A1B       0.041367
     31 H212       -37.7200   -41.0190   -12.0340 h1         1 A1B       0.041367
     32 H211       -37.6430   -42.7850   -12.0670 h1         1 A1B       0.041367
     33 H241       -41.9750   -39.4330    -5.9700 h1         1 A1B       0.044700
     34 H281       -45.6300   -38.7330    -6.1210 hc         1 A1B       0.046200
     35 H283       -44.0480   -37.9660    -6.0550 hc         1 A1B       0.046200
     36 H282       -44.6160   -38.6930    -7.5630 hc         1 A1B       0.046200
     37 H021       -33.9440   -41.8300    -6.2180 ha         1 A1B       0.228000
     38 H031       -31.3690   -41.7300    -6.9800 ha         1 A1B       0.212000
     39 H061       -30.1860   -41.6890    -9.6610 ha         1 A1B       0.144000
     40 H081       -33.3120   -41.7920   -12.6350 h4         1 A1B       0.045100
     41 H181       -36.1690   -41.8440   -10.4780 ha         1 A1B       0.147000
     42 H231       -42.3860   -42.3510    -6.7960 h1         1 A1B       0.075700
     43 H232       -41.8940   -41.8030    -5.2030 h1         1 A1B       0.075700
     44 H271       -45.0980   -40.1460    -4.1950 hc         1 A1B       0.046200
     45 H272       -43.7150   -41.2350    -4.1760 hc         1 A1B       0.046200
     46 H273       -43.4730   -39.4920    -4.0390 hc         1 A1B       0.046200
     47 H201       -39.7840   -42.1440   -10.3600 hn         1 A1B       0.534000
     48 H221       -39.8330   -41.0530    -6.0870 hn         1 A1B       0.312500
     49 H291       -45.5870   -41.2000    -6.4110 ho         1 A1B       0.445000
     50 C12        -40.0440   -42.0410    -7.8550 c          1 A1B       0.640700
@<TRIPOS>BOND
     1     1    12 1   
     2     1    23 3   
     3     2    14 ar  
     4     2    24 ar  
     5     2    29 1   
     6     3     7 1   
     7     3    15 ar  
     8     3    24 ar  
     9     4    25 1   
    10     4    30 1   
    11     4    31 1   
    12     4    32 1   
    13     5    17 1   
    14     5    18 1   
    15     5    20 1   
    16     5    33 1   
    17     6    18 1   
    18     6    34 1   
    19     6    35 1   
    20     6    36 1   
    21     7     8 2   
    22     7    21 1   
    23     8     9 1   
    24     8    37 1   
    25     9    10 2   
    26     9    38 1   
    27    10    11 1   
    28    10    21 1   
    29    11    12 2   
    30    11    39 1   
    31    12    13 1   
    32    13    22 2   
    33    13    40 1   
    34    14    16 ar  
    35    14    50 1   
    36    15    16 ar  
    37    15    41 1   
    38    16    25 1   
    39    17    26 1   
    40    17    42 1   
    41    17    43 1   
    42    18    19 1   
    43    18    28 1   
    44    19    44 1   
    45    19    45 1   
    46    19    46 1   
    47    21    22 1   
    48    25    47 1   
    49    26    48 1   
    50    26    50 1   
    51    27    50 2   
    52    28    49 1   
@<TRIPOS>SUBSTRUCTURE
     1 A1B         1 TEMP              0 ****  ****    0 ROOT
