@<TRIPOS>MOLECULE
A1B
   31    32     1     0     0
SMALL
abcg2


@<TRIPOS>ATOM
      1 N1          -7.1800     4.0890   -18.2780 nb         1 A1B      -0.695000
      2 C4          -6.8980     4.1970   -15.4960 ca         1 A1B       0.197100
      3 C5          -5.7910     4.5280   -16.3310 ca         1 A1B      -0.097000
      4 C6          -4.5340     4.9130   -15.8200 ca         1 A1B      -0.070000
      5 C7          -3.5190     5.2240   -16.6840 ca         1 A1B      -0.120000
      6 C8          -3.7220     5.1620   -18.0740 ca         1 A1B      -0.098000
      7 C10         -5.9960     4.4580   -17.7290 ca         1 A1B       0.300000
      8 C13         -7.9760     2.5200   -13.1650 c          1 A1B       0.572100
      9 C2          -8.1740     3.7840   -17.4860 ca         1 A1B       0.405300
     10 C3          -8.0830     3.8270   -16.0760 ca         1 A1B      -0.273000
     11 C9          -4.9310     4.7890   -18.6110 ca         1 A1B      -0.056300
     12 C11         -5.1410     4.7290   -20.0930 c3         1 A1B      -0.035800
     13 O1          -6.6810     4.3050   -14.1820 os         1 A1B      -0.308100
     14 C12         -7.7250     4.0220   -13.2870 c3         1 A1B       0.071600
     15 O2          -7.1690     1.7030   -13.5670 o          1 A1B      -0.567100
     16 N2          -9.1280     2.2140   -12.5560 nt         1 A1B      -0.614000
     17 H5          -4.3710     4.9650   -14.7520 ha         1 A1B       0.126000
     18 H6          -2.5520     5.5210   -16.2990 ha         1 A1B       0.114000
     19 H7          -2.9030     5.4160   -18.7370 ha         1 A1B       0.113000
     20 H1          -9.4080     3.3940   -19.1930 hc         1 A1B       0.051033
     21 H2          -9.7360     2.3500   -17.8030 hc         1 A1B       0.051033
     22 H3         -10.2870     4.0150   -17.7880 hc         1 A1B       0.051033
     23 H4          -8.9580     3.5630   -15.4960 ha         1 A1B       0.120000
     24 H9          -5.4410     3.7310   -20.4160 hc         1 A1B       0.045033
     25 H10         -5.9310     5.4110   -20.4110 hc         1 A1B       0.045033
     26 H8          -4.2300     4.9980   -20.6250 hc         1 A1B       0.045033
     27 H12         -7.3980     4.3970   -12.3160 h1         1 A1B       0.070700
     28 H11         -8.6420     4.5610   -13.5470 h1         1 A1B       0.070700
     29 H14         -9.3580     1.2540   -12.3550 hn         1 A1B       0.316000
     30 H13         -9.7770     2.9180   -12.2480 hn         1 A1B       0.316000
     31 C1          -9.4720     3.3640   -18.1080 c3         1 A1B      -0.149400
@<TRIPOS>BOND
     1     1     7 ar  
     2     1     9 ar  
     3     2     3 ar  
     4     2    10 ar  
     5     2    13 1   
     6     3     4 ar  
     7     3     7 ar  
     8     4     5 ar  
     9     4    17 1   
    10     5     6 ar  
    11     5    18 1   
    12     6    11 ar  
    13     6    19 1   
    14     7    11 ar  
    15     8    14 1   
    16     8    15 2   
    17     8    16 1   
    18     9    10 ar  
    19     9    31 1   
    20    10    23 1   
    21    11    12 1   
    22    12    24 1   
    23    12    25 1   
    24    12    26 1   
    25    13    14 1   
    26    14    27 1   
    27    14    28 1   
    28    16    29 1   
    29    16    30 1   
    30    20    31 1   
    31    21    31 1   
    32    22    31 1   
@<TRIPOS>SUBSTRUCTURE
     1 A1B         1 TEMP              0 ****  ****    0 ROOT
