@<TRIPOS>MOLECULE
A1B
    6     5     1     0     0
SMALL
abcg2


@<TRIPOS>ATOM
      1 C01          9.9880    12.2630   -25.7650 c1         1 A1B      -0.409000
      2 C02          9.4160    11.2650   -26.1270 cg         1 A1B      -0.105200
      3 C03          8.7100    10.0250   -26.5720 c          1 A1B       0.723200
      4 O04          9.3510     8.9750   -26.4210 o          1 A1B      -0.708000
      5 O05          7.5740    10.2000   -27.0350 o          1 A1B      -0.708000
      6 H1          10.4950    13.1440   -25.4460 ha         1 A1B       0.207000
@<TRIPOS>BOND
     1     1     2 3   
     2     1     6 1   
     3     2     3 1   
     4     3     4 1   
     5     3     5 1   
@<TRIPOS>SUBSTRUCTURE
     1 A1B         1 TEMP              0 ****  ****    0 ROOT
