@<TRIPOS>MOLECULE
A1B
   26    27     1     0     0
SMALL
abcg2


@<TRIPOS>ATOM
      1 C10         55.2330    37.9630    99.0420 cc         1 A1B      -0.268000
      2 C15         62.0220    34.4150    99.9280 cc         1 A1B      -0.187000
      3 C02         59.8680    36.8320    98.2760 c          1 A1B       0.530600
      4 C04         58.2420    37.5700    96.6250 c3         1 A1B       0.073700
      5 C05         57.0690    37.9420    97.4810 cc         1 A1B       0.421700
      6 C07         55.3500    39.0740    98.2590 cd         1 A1B       0.342800
      7 C08         54.4600    40.2240    98.3280 cf         1 A1B      -0.271800
      8 C09         54.5620    41.3150    97.5710 c2         1 A1B      -0.279000
      9 C12         60.6620    35.6950    98.7820 cd         1 A1B       0.190500
     10 C16         61.5570    35.7060    99.8660 cd         1 A1B      -0.161000
     11 N03         59.0620    36.5580    97.2310 ns         1 A1B      -0.510900
     12 N06         56.4030    39.0380    97.3790 nd         1 A1B      -0.636000
     13 N13         60.5890    34.4930    98.2300 nc         1 A1B      -0.522800
     14 N14         61.4110    33.7450    98.9330 na         1 A1B       0.014800
     15 O01         59.9420    37.9390    98.7850 o          1 A1B      -0.579100
     16 S11         56.4690    36.8400    98.6720 ss         1 A1B      -0.021400
     17 H101        54.4970    37.7690    99.8070 h4         1 A1B       0.159000
     18 H041        58.8140    38.4720    96.4030 h1         1 A1B       0.075700
     19 H042        57.8790    37.1790    95.6740 h1         1 A1B       0.075700
     20 H081        53.6640    40.1530    99.0620 ha         1 A1B       0.171000
     21 H092        53.8620    42.1320    97.6800 ha         1 A1B       0.170500
     22 H091        55.3380    41.4290    96.8260 ha         1 A1B       0.170500
     23 H161        61.8210    36.5310   100.5050 ha         1 A1B       0.165000
     24 H031        59.0660    35.6290    96.8390 hn         1 A1B       0.339500
     25 H141        61.5270    32.7710    98.6970 hn         1 A1B       0.375000
     26 H151        62.7240    33.9350   100.5900 h4         1 A1B       0.160000
@<TRIPOS>BOND
     1     1     6 2   
     2     1    16 1   
     3     1    17 1   
     4     2    10 2   
     5     2    14 1   
     6     2    26 1   
     7     3     9 1   
     8     3    11 1   
     9     3    15 2   
    10     4     5 1   
    11     4    11 1   
    12     4    18 1   
    13     4    19 1   
    14     5    12 2   
    15     5    16 1   
    16     6     7 1   
    17     6    12 1   
    18     7     8 2   
    19     7    20 1   
    20     8    21 1   
    21     8    22 1   
    22     9    10 1   
    23     9    13 2   
    24    10    23 1   
    25    11    24 1   
    26    13    14 1   
    27    14    25 1   
@<TRIPOS>SUBSTRUCTURE
     1 A1B         1 TEMP              0 ****  ****    0 ROOT
