@<TRIPOS>MOLECULE
A1B
   43    45     1     0     0
SMALL
abcg2


@<TRIPOS>ATOM
      1 N1          -8.4560     3.4950   -12.5760 n          1 A1B      -0.417800
      2 N3          -6.9230     4.9010   -15.6160 nb         1 A1B      -0.678000
      3 C4          -6.3180     4.8780   -18.3560 ca         1 A1B      -0.039300
      4 C5          -6.0040     4.8660   -19.8230 c3         1 A1B       0.204900
      5 C6          -7.6600     4.6770   -17.9190 ca         1 A1B      -0.075000
      6 C7          -8.7400     4.4540   -18.8030 ca         1 A1B      -0.098000
      7 C8         -10.0030     4.2600   -18.3130 ca         1 A1B      -0.103000
      8 C10         -9.2200     4.4890   -16.0340 ca         1 A1B      -0.032300
      9 C13         -8.7110     4.6820   -11.7630 c5         1 A1B       0.107000
     10 C15         -7.3720     3.1350   -10.5310 c5         1 A1B       0.140500
     11 C17         -7.9040     4.6960   -16.5270 ca         1 A1B       0.289000
     12 C2          -5.6990     5.0820   -16.0330 ca         1 A1B       0.373300
     13 C3          -5.3560     5.0760   -17.4080 ca         1 A1B      -0.139000
     14 O1          -4.6370     5.0880   -20.0280 oh         1 A1B      -0.657000
     15 C9         -10.2400     4.2770   -16.9250 ca         1 A1B      -0.094000
     16 C11         -9.4500     4.5130   -14.5550 c3         1 A1B      -0.097100
     17 C12         -8.7800     3.3350   -13.8680 c          1 A1B       0.624100
     18 O2          -8.5790     2.2830   -14.4620 o          1 A1B      -0.603100
     19 C14         -8.4640     4.1830   -10.3470 c5         1 A1B      -0.097400
     20 N2          -7.2810     2.2130    -9.4160 n8         1 A1B      -0.989200
     21 C16         -7.8110     2.4360   -11.8150 c5         1 A1B       0.102000
     22 H6          -6.3250     3.9010   -20.2400 h1         1 A1B       0.031700
     23 H5          -6.6190     5.6310   -20.3160 h1         1 A1B       0.031700
     24 H8          -8.5770     4.4330   -19.8730 ha         1 A1B       0.109000
     25 H9         -10.8270     4.0890   -18.9920 ha         1 A1B       0.114000
     26 H14         -8.0210     5.4900   -12.0250 h1         1 A1B       0.044700
     27 H13         -9.7270     5.0530   -11.8950 h1         1 A1B       0.044700
     28 H17         -6.4270     3.6600   -10.7360 h1         1 A1B       0.024700
     29 H3          -5.0370     5.2690   -14.0050 hc         1 A1B       0.051033
     30 H1          -3.8490     4.5400   -15.0940 hc         1 A1B       0.051033
     31 H2          -4.1400     6.2680   -15.1590 hc         1 A1B       0.051033
     32 H4          -4.3220     5.2310   -17.6870 ha         1 A1B       0.139000
     33 H7          -4.4690     5.0700   -20.9740 ho         1 A1B       0.449000
     34 H10        -11.2470     4.1190   -16.5580 ha         1 A1B       0.115000
     35 H12         -9.1030     5.4590   -14.1370 hc         1 A1B       0.065200
     36 H11        -10.5230     4.4580   -14.3450 hc         1 A1B       0.065200
     37 H16         -8.1850     4.9870    -9.6650 hc         1 A1B       0.060200
     38 H15         -9.3610     3.6970    -9.9540 hc         1 A1B       0.060200
     39 H22         -6.5420     1.5420    -9.5930 hn         1 A1B       0.397500
     40 H19         -6.9890     2.7200    -8.5900 hn         1 A1B       0.397500
     41 H21         -6.9760     2.0040   -12.3680 h1         1 A1B       0.062200
     42 H20         -8.5150     1.6300   -11.5810 h1         1 A1B       0.062200
     43 C1          -4.6260     5.3020   -15.0110 c3         1 A1B      -0.147400
@<TRIPOS>BOND
     1     1     9 1   
     2     1    17 1   
     3     1    21 1   
     4     2    11 ar  
     5     2    12 ar  
     6     3     4 1   
     7     3     5 ar  
     8     3    13 ar  
     9     4    14 1   
    10     4    22 1   
    11     4    23 1   
    12     5     6 ar  
    13     5    11 ar  
    14     6     7 ar  
    15     6    24 1   
    16     7    15 ar  
    17     7    25 1   
    18     8    11 ar  
    19     8    15 ar  
    20     8    16 1   
    21     9    19 1   
    22     9    26 1   
    23     9    27 1   
    24    10    19 1   
    25    10    20 1   
    26    10    21 1   
    27    10    28 1   
    28    12    13 ar  
    29    12    43 1   
    30    13    32 1   
    31    14    33 1   
    32    15    34 1   
    33    16    17 1   
    34    16    35 1   
    35    16    36 1   
    36    17    18 2   
    37    19    37 1   
    38    19    38 1   
    39    20    39 1   
    40    20    40 1   
    41    21    41 1   
    42    21    42 1   
    43    29    43 1   
    44    30    43 1   
    45    31    43 1   
@<TRIPOS>SUBSTRUCTURE
     1 A1B         1 TEMP              0 ****  ****    0 ROOT
