@<TRIPOS>MOLECULE
A1B
   31    33     1     0     0
SMALL
abcg2


@<TRIPOS>ATOM
      1 C5          18.5490    -1.7120   -22.8510 ca         1 A1B      -0.136300
      2 C6          18.7850    -0.3910   -22.5300 ca         1 A1B      -0.129000
      3 C7          17.6810     0.3760   -22.1340 ca         1 A1B       0.496900
      4 C13         19.4080     5.0220   -21.7850 cx         1 A1B      -0.091900
      5 C15         16.2530    -1.4000   -22.3650 ca         1 A1B       0.366000
      6 C17         14.8760    -1.8440   -22.2550 cc         1 A1B       0.028000
      7 C20         13.2550    -3.2350   -22.3400 cc         1 A1B       0.444900
      8 F1          19.3530    -3.3100   -24.3720 f          1 A1B      -0.107000
      9 C2          19.6770    -2.6060   -23.2840 c3         1 A1B       0.358300
     10 F3          20.7880    -1.9240   -23.5680 f          1 A1B      -0.107000
     11 F4          19.9830    -3.4880   -22.3260 f          1 A1B      -0.107000
     12 N8          17.7460     1.7190   -21.8000 ns         1 A1B      -0.321900
     13 C9          18.8410     2.5270   -21.6600 c          1 A1B       0.651100
     14 O10         19.9840     2.1410   -21.8210 o          1 A1B      -0.575100
     15 C11         18.5030     3.9230   -21.2900 cx         1 A1B      -0.253700
     16 C12         19.4330     4.6490   -20.3510 cx         1 A1B      -0.091900
     17 N14         16.4600    -0.1220   -22.0620 nb         1 A1B      -0.725000
     18 C16         17.2730    -2.2520   -22.7660 ca         1 A1B      -0.131000
     19 C18         13.7160    -1.2200   -21.9320 cd         1 A1B       0.283900
     20 N19         12.6900    -2.1320   -21.9930 nd         1 A1B      -0.680000
     21 O21         14.5740    -3.1380   -22.5170 os         1 A1B      -0.254000
     22 H1          19.7680     0.0440   -22.5880 ha         1 A1B       0.177000
     23 H2          20.2480     4.7310   -22.4020 hc         1 A1B       0.084950
     24 H3          18.9280     5.9470   -22.0750 hc         1 A1B       0.084950
     25 H4          12.7990    -4.2010   -22.4990 h5         1 A1B       0.087100
     26 H5          16.8410     2.1240   -21.6050 hn         1 A1B       0.171000
     27 H6          17.4490     4.1620   -21.2080 hc         1 A1B       0.091700
     28 H7          20.2880     4.1020   -19.9780 hc         1 A1B       0.084950
     29 H8          18.9690     5.3110   -19.6320 hc         1 A1B       0.084950
     30 H9          17.0770    -3.2870   -23.0090 ha         1 A1B       0.153000
     31 H10         13.5600    -0.1880   -21.6650 h4         1 A1B       0.060100
@<TRIPOS>BOND
     1     1     2 ar  
     2     1     9 1   
     3     1    18 ar  
     4     2     3 ar  
     5     2    22 1   
     6     3    12 1   
     7     3    17 ar  
     8     4    15 1   
     9     4    16 1   
    10     4    23 1   
    11     4    24 1   
    12     5     6 1   
    13     5    17 ar  
    14     5    18 ar  
    15     6    19 2   
    16     6    21 1   
    17     7    20 2   
    18     7    21 1   
    19     7    25 1   
    20     8     9 1   
    21     9    10 1   
    22     9    11 1   
    23    12    13 1   
    24    12    26 1   
    25    13    14 2   
    26    13    15 1   
    27    15    16 1   
    28    15    27 1   
    29    16    28 1   
    30    16    29 1   
    31    18    30 1   
    32    19    20 1   
    33    19    31 1   
@<TRIPOS>SUBSTRUCTURE
     1 A1B         1 TEMP              0 ****  ****    0 ROOT
