@<TRIPOS>MOLECULE
A1B
   91    90     1     0     0
SMALL
abcg2


@<TRIPOS>ATOM
      1 C4         169.8790   174.3210   202.8930 c3         1 A1B      -0.072400
      2 C14        171.9690   184.2260   208.5200 c3         1 A1B      -0.063400
      3 C5         170.5930   175.4820   202.2110 c3         1 A1B      -0.077400
      4 C6         171.1670   176.4980   203.1910 c3         1 A1B      -0.076400
      5 C11        171.4070   181.2480   206.0820 c3         1 A1B      -0.075400
      6 C7         171.8770   177.6480   202.4860 c3         1 A1B      -0.072400
      7 C8         172.5650   178.6390   203.4180 c3         1 A1B      -0.071400
      8 C9         171.6190   179.4000   204.3410 c3         1 A1B      -0.076400
      9 C10        172.3300   180.4800   205.1440 c3         1 A1B      -0.075400
     10 C12        172.1300   182.3460   206.8490 c3         1 A1B      -0.073400
     11 C13        171.2190   183.1160   207.7970 c3         1 A1B      -0.078400
     12 N2         171.2810   189.3050   210.4270 ns         1 A1B      -0.506900
     13 C3         169.3800   173.2470   201.9310 c3         1 A1B      -0.072400
     14 N3         168.8540   189.7240   206.4970 ns         1 A1B      -0.507900
     15 C1         167.7920   172.6070   200.0610 c3         1 A1B      -0.088100
     16 C15        171.1740   184.9150   209.6150 c3         1 A1B      -0.028700
     17 C16        172.0000   185.8850   210.4540 c          1 A1B       0.605100
     18 C17        173.3520   187.9270   210.4290 c3         1 A1B       0.080000
     19 C18        172.4490   188.9120   211.1790 c3         1 A1B       0.083000
     20 C19        171.3260   190.1020   209.3470 c          1 A1B       0.598100
     21 C2         168.3060   173.7240   200.9590 c3         1 A1B      -0.077400
     22 C20        170.0120   190.2850   208.6180 c3         1 A1B      -0.186400
     23 C21        170.0800   189.6020   207.2470 c3         1 A1B       0.119000
     24 C22        167.7660   188.9740   206.7300 c          1 A1B       0.561100
     25 C23        166.5550   189.2810   205.8440 c3         1 A1B       0.113300
     26 C24        165.5370   190.2170   206.5410 c3         1 A1B      -0.061000
     27 C25        166.1810   191.5150   207.0270 c3         1 A1B      -0.076600
     28 C26        164.9270   189.4850   207.7420 c3         1 A1B      -0.076600
     29 C27        164.3600   190.5250   205.5880 c3         1 A1B       0.279600
     30 O1         172.0960   185.7320   211.6610 o          1 A1B      -0.609100
     31 O2         172.3590   190.6240   208.9510 o          1 A1B      -0.631100
     32 O3         167.7280   188.0940   207.5830 o          1 A1B      -0.663100
     33 O4         166.9510   189.8440   204.6170 oh         1 A1B      -0.585000
     34 O5         164.6450   191.4830   204.6240 os         1 A1B      -0.568400
     35 O6         164.0630   193.3390   203.0590 o          1 A1B      -0.924167
     36 O8         163.1760   193.4230   205.4760 o          1 A1B      -0.924167
     37 P1         163.4040   192.5930   204.2120 p5         1 A1B       1.267900
     38 H1         170.5620   173.8620   203.6150 hc         1 A1B       0.037200
     39 H2         169.0350   174.7050   203.4770 hc         1 A1B       0.037200
     40 H3         172.8480   183.7960   209.0140 hc         1 A1B       0.046700
     41 H4         172.3510   184.9510   207.7970 hc         1 A1B       0.046700
     42 H5         169.9070   175.9960   201.5300 hc         1 A1B       0.036700
     43 H6         171.4020   175.0890   201.5850 hc         1 A1B       0.036700
     44 H7         171.8700   175.9970   203.8670 hc         1 A1B       0.038200
     45 H8         170.3610   176.8830   203.8230 hc         1 A1B       0.038200
     46 H9         170.5870   181.6870   205.5040 hc         1 A1B       0.042200
     47 H10        170.9420   180.5520   206.7880 hc         1 A1B       0.042200
     48 H11        171.1580   178.1820   201.8550 hc         1 A1B       0.036700
     49 H12        172.6240   177.2310   201.8030 hc         1 A1B       0.036700
     50 H13        173.3130   178.1130   204.0220 hc         1 A1B       0.035200
     51 H14        173.1210   179.3620   202.8140 hc         1 A1B       0.035200
     52 H15        170.8210   179.8560   203.7450 hc         1 A1B       0.040200
     53 H16        171.1250   178.7070   205.0300 hc         1 A1B       0.040200
     54 H17        173.1400   180.0280   205.7270 hc         1 A1B       0.034200
     55 H18        172.8120   181.1830   204.4560 hc         1 A1B       0.034200
     56 H19        172.9570   181.9090   207.4190 hc         1 A1B       0.034700
     57 H20        172.5880   183.0430   206.1390 hc         1 A1B       0.034700
     58 H21        170.3820   183.5340   207.2320 hc         1 A1B       0.052700
     59 H22        170.7860   182.4290   208.5310 hc         1 A1B       0.052700
     60 H23        172.4400   186.9700   208.7950 hn         1 A1B       0.327500
     61 H24        170.4060   188.8700   210.6670 hn         1 A1B       0.329500
     62 H25        170.2280   172.8470   201.3640 hc         1 A1B       0.033700
     63 H26        168.9820   172.4080   202.5090 hc         1 A1B       0.033700
     64 H27        168.7940   190.4300   205.7810 hn         1 A1B       0.348500
     65 H28        167.0180   172.9640   199.3800 hc         1 A1B       0.029033
     66 H29        168.5970   172.1880   199.4550 hc         1 A1B       0.029033
     67 H30        167.3650   171.7920   200.6490 hc         1 A1B       0.029033
     68 BR1        169.6370   185.9170   208.8840 br         1 A1B      -0.176000
     69 H33        174.0800   187.5130   211.1280 h1         1 A1B       0.058700
     70 H34        173.9110   188.4450   209.6530 h1         1 A1B       0.058700
     71 H35        172.0960   188.4620   212.1040 h1         1 A1B       0.057200
     72 H36        173.0390   189.7880   211.4530 h1         1 A1B       0.057200
     73 H37        168.6970   174.5330   200.3370 hc         1 A1B       0.040700
     74 H38        167.4740   174.1530   201.5260 hc         1 A1B       0.040700
     75 H39        169.8320   191.3530   208.4830 hc         1 A1B       0.081200
     76 H40        169.1760   189.8780   209.1890 hc         1 A1B       0.081200
     77 H41        170.3230   188.5460   207.3720 h1         1 A1B       0.042700
     78 H42        170.8760   190.0480   206.6530 h1         1 A1B       0.042700
     79 H43        166.0480   188.3180   205.6870 h1         1 A1B       0.044700
     80 H44        166.7320   192.0310   206.2430 hc         1 A1B       0.027200
     81 H45        165.4090   192.1990   207.3840 hc         1 A1B       0.027200
     82 H46        166.8670   191.3370   207.8570 hc         1 A1B       0.027200
     83 H47        165.6730   189.2040   208.4830 hc         1 A1B       0.027200
     84 H48        164.2000   190.1320   208.2350 hc         1 A1B       0.027200
     85 H49        164.4040   188.5770   207.4340 hc         1 A1B       0.027200
     86 H50        163.5290   190.8450   206.2340 h1         1 A1B      -0.009800
     87 H51        164.0340   189.5740   205.1330 h1         1 A1B      -0.009800
     88 H52        167.4320   189.1760   204.1180 ho         1 A1B       0.404000
     89 H31        170.7480   184.1750   210.2930 h1         1 A1B       0.101700
     90 O7         162.2160   191.7140   203.8260 o          1 A1B      -0.924167
     91 N1         172.6210   186.8630   209.7800 ns         1 A1B      -0.489900
@<TRIPOS>BOND
     1     1     3 1   
     2     1    13 1   
     3     1    38 1   
     4     1    39 1   
     5     2    11 1   
     6     2    16 1   
     7     2    40 1   
     8     2    41 1   
     9     3     4 1   
    10     3    42 1   
    11     3    43 1   
    12     4     6 1   
    13     4    44 1   
    14     4    45 1   
    15     5     9 1   
    16     5    10 1   
    17     5    46 1   
    18     5    47 1   
    19     6     7 1   
    20     6    48 1   
    21     6    49 1   
    22     7     8 1   
    23     7    50 1   
    24     7    51 1   
    25     8     9 1   
    26     8    52 1   
    27     8    53 1   
    28     9    54 1   
    29     9    55 1   
    30    10    11 1   
    31    10    56 1   
    32    10    57 1   
    33    11    58 1   
    34    11    59 1   
    35    12    19 1   
    36    12    20 1   
    37    12    61 1   
    38    13    21 1   
    39    13    62 1   
    40    13    63 1   
    41    14    23 1   
    42    14    24 1   
    43    14    64 1   
    44    15    21 1   
    45    15    65 1   
    46    15    66 1   
    47    15    67 1   
    48    16    17 1   
    49    16    68 1   
    50    16    89 1   
    51    17    30 2   
    52    17    91 1   
    53    18    19 1   
    54    18    69 1   
    55    18    70 1   
    56    18    91 1   
    57    19    71 1   
    58    19    72 1   
    59    20    22 1   
    60    20    31 2   
    61    21    73 1   
    62    21    74 1   
    63    22    23 1   
    64    22    75 1   
    65    22    76 1   
    66    23    77 1   
    67    23    78 1   
    68    24    25 1   
    69    24    32 2   
    70    25    26 1   
    71    25    33 1   
    72    25    79 1   
    73    26    27 1   
    74    26    28 1   
    75    26    29 1   
    76    27    80 1   
    77    27    81 1   
    78    27    82 1   
    79    28    83 1   
    80    28    84 1   
    81    28    85 1   
    82    29    34 1   
    83    29    86 1   
    84    29    87 1   
    85    33    88 1   
    86    34    37 1   
    87    35    37 1   
    88    36    37 1   
    89    37    90 1   
    90    60    91 1   
@<TRIPOS>SUBSTRUCTURE
     1 A1B         1 TEMP              0 ****  ****    0 ROOT
