@<TRIPOS>MOLECULE
A1B
   63    66     1     0     0
SMALL
abcg2


@<TRIPOS>ATOM
      1 N1        -125.7800  -179.3910   312.6740 nb         1 A1B      -0.671000
      2 C2        -125.4560  -184.6150   310.3990 ca         1 A1B      -0.074000
      3 O2        -124.1610  -178.9890   308.0040 os         1 A1B      -0.465300
      4 C4        -125.2120  -182.2140   310.3040 ca         1 A1B      -0.099000
      5 C5        -124.7510  -182.3330   308.9790 ca         1 A1B       0.274000
      6 C6        -124.6480  -183.6010   308.3900 ca         1 A1B      -0.074000
      7 C22       -111.5300  -175.1850   310.7230 ca         1 A1B       0.214500
      8 C21       -112.8700  -174.9440   310.5230 ca         1 A1B      -0.165000
      9 C23       -110.9410  -176.3870   310.3540 ca         1 A1B      -0.014900
     10 C26       -109.1530  -177.1500   311.6470 c3         1 A1B       0.510000
     11 F3        -107.8340  -177.1810   311.5910 f          1 A1B      -0.103333
     12 F2        -109.6010  -178.3950   311.8010 f          1 A1B      -0.103333
     13 F1        -109.5190  -176.4680   312.7300 f          1 A1B      -0.103333
     14 C24       -111.7460  -177.3390   309.7490 ca         1 A1B       0.214500
     15 F         -111.1960  -178.4900   309.3640 f          1 A1B      -0.151500
     16 C25       -113.0890  -177.1190   309.5220 ca         1 A1B      -0.165000
     17 C20       -113.6620  -175.9160   309.9170 ca         1 A1B      -0.010300
     18 C19       -115.1190  -175.6240   309.6750 c3         1 A1B       0.202100
     19 N2        -115.8740  -176.8020   309.3230 n7         1 A1B      -0.869400
     20 C18       -117.2510  -176.5120   308.9660 c3         1 A1B       0.161800
     21 C17       -117.9530  -177.7510   308.4340 c3         1 A1B      -0.077400
     22 C16       -119.4250  -177.4940   308.1460 c3         1 A1B      -0.080400
     23 C15       -120.0930  -178.6970   307.5120 c3         1 A1B       0.164600
     24 O3        -121.4640  -178.4310   307.3390 os         1 A1B      -0.457000
     25 C14       -122.1530  -179.4790   306.7100 c3         1 A1B       0.128600
     26 C13       -123.6280  -179.1550   306.6920 c3         1 A1B       0.174600
     27 C7        -124.4750  -180.0670   308.7150 ca         1 A1B       0.576300
     28 C8        -124.9220  -179.7910   310.0650 ca         1 A1B      -0.071000
     29 C12       -125.2900  -180.8850   310.8590 ca         1 A1B      -0.022000
     30 C11       -125.7140  -180.6010   312.1700 ca         1 A1B       0.337900
     31 C10       -125.4220  -178.3570   311.9000 ca         1 A1B       0.287900
     32 C9        -124.9900  -178.5020   310.6040 ca         1 A1B      -0.110000
     33 C3        -125.5620  -183.3820   310.9980 ca         1 A1B      -0.126000
     34 N         -124.3910  -181.2460   308.2210 nb         1 A1B      -0.749000
     35 C1        -124.9920  -184.7450   309.0800 ca         1 A1B      -0.116600
     36 C         -124.8670  -186.1230   308.4300 c          1 A1B       0.713600
     37 O1        -125.1920  -187.0950   309.1360 o          1 A1B      -0.710500
     38 O         -124.4490  -186.1470   307.2570 o          1 A1B      -0.710500
     39 H1        -125.7310  -185.5030   310.9510 ha         1 A1B       0.134000
     40 H2        -124.2890  -183.6640   307.3710 ha         1 A1B       0.144000
     41 H3        -113.2940  -173.9970   310.8370 ha         1 A1B       0.152000
     42 H4        -113.6820  -177.8820   309.0370 ha         1 A1B       0.152000
     43 H5        -115.1880  -174.9150   308.8440 h1         1 A1B       0.046700
     44 H6        -115.5170  -175.0900   310.5520 h1         1 A1B       0.046700
     45 H7        -115.8690  -177.4480   310.1040 hn         1 A1B       0.415000
     46 H9        -117.2470  -175.7420   308.1880 h1         1 A1B       0.031200
     47 H10       -117.8260  -176.0950   309.8070 h1         1 A1B       0.031200
     48 H11       -117.8600  -178.5650   309.1610 hc         1 A1B       0.048700
     49 H12       -117.4410  -178.0840   307.5260 hc         1 A1B       0.048700
     50 H13       -119.5270  -176.6300   307.4810 hc         1 A1B       0.050200
     51 H14       -119.9410  -177.2400   309.0770 hc         1 A1B       0.050200
     52 H15       -119.9520  -179.5840   308.1470 h1         1 A1B       0.022200
     53 H16       -119.6150  -178.9220   306.5470 h1         1 A1B       0.022200
     54 H17       -121.9730  -180.4350   307.2190 h1         1 A1B       0.040200
     55 H18       -121.8260  -179.6080   305.6680 h1         1 A1B       0.040200
     56 H19       -123.8000  -178.1990   306.1960 h1         1 A1B       0.067200
     57 H20       -124.1680  -179.9280   306.1440 h1         1 A1B       0.067200
     58 H21       -126.0110  -181.4060   312.8330 h4         1 A1B       0.020100
     59 H22       -125.4870  -177.3740   312.3500 h4         1 A1B       0.006100
     60 H23       -124.7110  -177.6320   310.0260 ha         1 A1B       0.130000
     61 H24       -125.9240  -183.3260   312.0160 ha         1 A1B       0.093000
     62 F4        -110.7640  -174.2440   311.2740 f          1 A1B      -0.151500
     63 O4        -109.5880  -176.5840   310.5040 os         1 A1B      -0.372100
@<TRIPOS>BOND
     1     1    30 ar  
     2     1    31 ar  
     3     2    33 ar  
     4     2    35 ar  
     5     2    39 1   
     6     3    26 1   
     7     3    27 1   
     8     4     5 ar  
     9     4    29 ar  
    10     4    33 ar  
    11     5     6 ar  
    12     5    34 ar  
    13     6    35 ar  
    14     6    40 1   
    15     7     8 ar  
    16     7     9 ar  
    17     7    62 1   
    18     8    17 ar  
    19     8    41 1   
    20     9    14 ar  
    21     9    63 1   
    22    10    11 1   
    23    10    12 1   
    24    10    13 1   
    25    10    63 1   
    26    14    15 1   
    27    14    16 ar  
    28    16    17 ar  
    29    16    42 1   
    30    17    18 1   
    31    18    19 1   
    32    18    43 1   
    33    18    44 1   
    34    19    20 1   
    35    19    45 1   
    36    20    21 1   
    37    20    46 1   
    38    20    47 1   
    39    21    22 1   
    40    21    48 1   
    41    21    49 1   
    42    22    23 1   
    43    22    50 1   
    44    22    51 1   
    45    23    24 1   
    46    23    52 1   
    47    23    53 1   
    48    24    25 1   
    49    25    26 1   
    50    25    54 1   
    51    25    55 1   
    52    26    56 1   
    53    26    57 1   
    54    27    28 ar  
    55    27    34 ar  
    56    28    29 ar  
    57    28    32 ar  
    58    29    30 ar  
    59    30    58 1   
    60    31    32 ar  
    61    31    59 1   
    62    32    60 1   
    63    33    61 1   
    64    35    36 1   
    65    36    37 1   
    66    36    38 1   
@<TRIPOS>SUBSTRUCTURE
     1 A1B         1 TEMP              0 ****  ****    0 ROOT
