@<TRIPOS>MOLECULE
A1B
   73    77     1     0     0
SMALL
abcg2


@<TRIPOS>ATOM
      1 C1          -6.5140    -1.1510    15.3440 ca         1 A1B      -0.130600
      2 C2          -7.2570    -0.9920    16.5240 ca         1 A1B      -0.081000
      3 C3          -7.3540     0.2420    17.1210 ca         1 A1B      -0.086000
      4 C4          -6.7060     1.3610    16.5780 ca         1 A1B      -0.080000
      5 C5          -5.9440     1.2060    15.4060 ca         1 A1B       0.313000
      6 C6          -5.8610    -0.0620    14.8050 ca         1 A1B      -0.079000
      7 C7          -5.3160     3.4290    15.3020 ca         1 A1B       0.649900
      8 C14          4.6770     7.4350    17.1980 c3         1 A1B       0.207100
      9 C15          6.1640     7.1980    17.1840 ca         1 A1B      -0.079300
     10 C16          6.8110     6.7790    16.0230 ca         1 A1B      -0.086000
     11 C8          -3.8460     4.1980    13.4980 c3         1 A1B       0.227800
     12 C19          8.3000     7.2150    18.3020 ca         1 A1B       0.129000
     13 C18          8.9660     6.8140    17.1470 cp         1 A1B      -0.024000
     14 C21         10.4280     6.6030    17.0710 cp         1 A1B      -0.041000
     15 C26         10.9290     5.3690    16.6590 ca         1 A1B      -0.089500
     16 C25         12.2980     5.1650    16.5430 ca         1 A1B      -0.113500
     17 C24         13.1820     6.1950    16.8330 ca         1 A1B      -0.104000
     18 C23         12.6900     7.4310    17.2370 ca         1 A1B      -0.113500
     19 C22         11.3230     7.6330    17.3560 ca         1 A1B      -0.089500
     20 C17          8.1810     6.5950    16.0120 ca         1 A1B      -0.101000
     21 C20          6.9250     7.4040    18.3260 ca         1 A1B      -0.105000
     22 N4           3.9630     6.3500    16.5580 n7         1 A1B      -0.866400
     23 C13          2.5400     6.6040    16.4290 c3         1 A1B       0.161800
     24 C12          1.8310     5.4370    15.7600 c3         1 A1B      -0.079400
     25 C11          0.3530     5.7110    15.5230 c3         1 A1B      -0.078400
     26 C10         -0.3490     4.5500    14.8380 c3         1 A1B       0.158800
     27 N3          -1.7330     4.8670    14.5380 n7         1 A1B      -0.867400
     28 C9          -2.4130     3.8050    13.8240 c3         1 A1B       0.124800
     29 N2          -4.6700     4.4230    14.6630 nu         1 A1B      -0.917100
     30 C27         -6.0920     3.7400    16.5020 ca         1 A1B      -0.074000
     31 C31         -6.7690     2.6900    17.1400 ca         1 A1B      -0.040000
     32 C30         -7.4970     3.0040    18.3020 ca         1 A1B       0.350900
     33 N5          -7.5880     4.2110    18.8100 nb         1 A1B      -0.651000
     34 C29         -6.9560     5.2080    18.1820 ca         1 A1B       0.323900
     35 C28         -6.2080     5.0250    17.0430 ca         1 A1B      -0.135000
     36 N1          -5.2610     2.2260    14.8130 nb         1 A1B      -0.782000
     37 C           -6.4370    -2.5190    14.7380 c          1 A1B       0.615700
     38 O           -6.6370    -3.5160    15.4160 o          1 A1B      -0.602100
     39 N           -6.1400    -2.5770    13.4300 nt         1 A1B      -0.604000
     40 H1          -7.7630    -1.8410    16.9620 ha         1 A1B       0.138000
     41 H2          -7.9460     0.3340    18.0210 ha         1 A1B       0.116000
     42 H3          -5.2460    -0.1450    13.9180 ha         1 A1B       0.125000
     43 H4           4.4620     8.3520    16.6400 h1         1 A1B       0.038700
     44 H5           4.3490     7.6270    18.2310 h1         1 A1B       0.038700
     45 H6           6.2390     6.5990    15.1230 ha         1 A1B       0.132000
     46 H7          -3.8490     5.1200    12.9110 h1         1 A1B       0.060200
     47 H8          -4.3070     3.4270    12.8840 h1         1 A1B       0.060200
     48 H9          10.2440     4.5610    16.4360 ha         1 A1B       0.117000
     49 H10         12.6710     4.2000    16.2270 ha         1 A1B       0.113500
     50 H11         14.2490     6.0380    16.7410 ha         1 A1B       0.112000
     51 H12         13.3730     8.2420    17.4540 ha         1 A1B       0.113500
     52 H13         10.9510     8.6040    17.6570 ha         1 A1B       0.117000
     53 H14          8.6710     6.2860    15.0970 ha         1 A1B       0.121000
     54 H15          6.4430     7.7060    19.2480 ha         1 A1B       0.126000
     55 H16          4.1020     5.5030    17.0970 hn         1 A1B       0.413000
     56 H18          2.4110     7.5030    15.8180 h1         1 A1B       0.029700
     57 H19          2.0570     6.8190    17.3950 h1         1 A1B       0.029700
     58 H20          1.9440     4.5400    16.3780 hc         1 A1B       0.047200
     59 H21          2.3250     5.2220    14.8080 hc         1 A1B       0.047200
     60 H22          0.2520     6.6090    14.9030 hc         1 A1B       0.044200
     61 H23         -0.1480     5.9310    16.4700 hc         1 A1B       0.044200
     62 H24         -0.3310     3.6740    15.4940 h1         1 A1B       0.032700
     63 H25          0.2170     4.2670    13.9350 h1         1 A1B       0.032700
     64 H26         -1.7520     5.7030    13.9640 hn         1 A1B       0.399000
     65 H28         -2.4150     2.9060    14.4460 h1         1 A1B       0.046200
     66 H29         -1.9100     3.5320    12.8820 h1         1 A1B       0.046200
     67 H30         -4.5170     5.2910    15.1460 hn         1 A1B       0.497000
     68 H31         -8.0280     2.2250    18.8360 h4         1 A1B       0.025100
     69 H32         -7.0570     6.1960    18.6160 h4         1 A1B       0.023100
     70 H33         -5.7380     5.8880    16.5940 ha         1 A1B       0.121000
     71 H34         -6.0980    -3.4730    12.9720 hn         1 A1B       0.314500
     72 H35         -6.1210    -1.7630    12.8410 hn         1 A1B       0.314500
     73 CL           9.1710     7.4470    19.7860 cl         1 A1B      -0.202000
@<TRIPOS>BOND
     1     1     2 ar  
     2     1     6 ar  
     3     1    37 1   
     4     2     3 ar  
     5     2    40 1   
     6     3     4 ar  
     7     3    41 1   
     8     4     5 ar  
     9     4    31 ar  
    10     5     6 ar  
    11     5    36 ar  
    12     6    42 1   
    13     7    29 1   
    14     7    30 ar  
    15     7    36 ar  
    16     8     9 1   
    17     8    22 1   
    18     8    43 1   
    19     8    44 1   
    20     9    10 ar  
    21     9    21 ar  
    22    10    20 ar  
    23    10    45 1   
    24    11    28 1   
    25    11    29 1   
    26    11    46 1   
    27    11    47 1   
    28    12    13 ar  
    29    12    21 ar  
    30    12    73 1   
    31    13    14 1   
    32    13    20 ar  
    33    14    15 ar  
    34    14    19 ar  
    35    15    16 ar  
    36    15    48 1   
    37    16    17 ar  
    38    16    49 1   
    39    17    18 ar  
    40    17    50 1   
    41    18    19 ar  
    42    18    51 1   
    43    19    52 1   
    44    20    53 1   
    45    21    54 1   
    46    22    23 1   
    47    22    55 1   
    48    23    24 1   
    49    23    56 1   
    50    23    57 1   
    51    24    25 1   
    52    24    58 1   
    53    24    59 1   
    54    25    26 1   
    55    25    60 1   
    56    25    61 1   
    57    26    27 1   
    58    26    62 1   
    59    26    63 1   
    60    27    28 1   
    61    27    64 1   
    62    28    65 1   
    63    28    66 1   
    64    29    67 1   
    65    30    31 ar  
    66    30    35 ar  
    67    31    32 ar  
    68    32    33 ar  
    69    32    68 1   
    70    33    34 ar  
    71    34    35 ar  
    72    34    69 1   
    73    35    70 1   
    74    37    38 2   
    75    37    39 1   
    76    39    71 1   
    77    39    72 1   
@<TRIPOS>SUBSTRUCTURE
     1 A1B         1 TEMP              0 ****  ****    0 ROOT
