@<TRIPOS>MOLECULE
A1B
   33    33     1     0     0
SMALL
abcg2


@<TRIPOS>ATOM
      1 N1         -19.7440   -46.2490   -21.4880 nc         1 A1B      -0.646000
      2 C4         -21.0690   -45.1510   -18.1400 c3         1 A1B       0.196000
      3 C5         -20.1240   -44.1160   -17.5390 c3         1 A1B      -0.103100
      4 C6         -20.4530   -45.8160   -19.3380 cd         1 A1B      -0.237300
      5 C7         -19.1510   -47.2080   -20.8560 cd         1 A1B       0.450700
      6 C8         -18.2910   -48.2430   -21.4920 c3         1 A1B      -0.130400
      7 N          -21.4320   -46.1210   -17.1280 ns         1 A1B      -0.517900
      8 C          -22.1920   -49.3400   -16.6900 c3         1 A1B      -0.083100
      9 O          -23.2540   -46.8910   -18.2030 o          1 A1B      -0.590100
     10 C1         -22.6390   -47.9810   -16.1500 c3         1 A1B      -0.136700
     11 C2         -24.0750   -48.0320   -15.6430 c3         1 A1B      -0.083100
     12 C3         -22.4890   -46.9470   -17.2520 c          1 A1B       0.600100
     13 C9         -20.4830   -45.4510   -20.6480 cc         1 A1B       0.309300
     14 S          -19.4560   -47.2120   -19.1540 ss         1 A1B      -0.070400
     15 H8         -21.9780   -44.6410   -18.4670 h1         1 A1B       0.082700
     16 H11        -19.8670   -43.3690   -18.2890 hc         1 A1B       0.046367
     17 H10        -20.5910   -43.6070   -16.6960 hc         1 A1B       0.046367
     18 H9         -19.1990   -44.5820   -17.1960 hc         1 A1B       0.046367
     19 H13        -18.6940   -49.2450   -21.3350 hc         1 A1B       0.057700
     20 H12        -18.2320   -48.0600   -22.5630 hc         1 A1B       0.057700
     21 H14        -17.2810   -48.2290   -21.0820 hc         1 A1B       0.057700
     22 H16        -21.7800   -44.5850   -22.1070 hc         1 A1B       0.049700
     23 H15        -21.9090   -43.8430   -20.5140 hc         1 A1B       0.049700
     24 H17        -20.5200   -43.5030   -21.5360 hc         1 A1B       0.049700
     25 H7         -20.8330   -46.2080   -16.3210 hn         1 A1B       0.314500
     26 H1         -21.1600   -49.3150   -17.0430 hc         1 A1B       0.042867
     27 H          -22.2590   -50.0960   -15.9070 hc         1 A1B       0.042867
     28 H2         -22.8260   -49.6590   -17.5180 hc         1 A1B       0.042867
     29 H3         -21.9850   -47.7120   -15.3160 hc         1 A1B       0.044700
     30 H6         -24.4000   -47.0680   -15.2480 hc         1 A1B       0.042867
     31 H4         -24.7640   -48.3240   -16.4360 hc         1 A1B       0.042867
     32 H5         -24.1620   -48.7640   -14.8400 hc         1 A1B       0.042867
     33 C10        -21.2140   -44.2860   -21.2250 c3         1 A1B      -0.119400
@<TRIPOS>BOND
     1     1     5 2   
     2     1    13 1   
     3     2     3 1   
     4     2     4 1   
     5     2     7 1   
     6     2    15 1   
     7     3    16 1   
     8     3    17 1   
     9     3    18 1   
    10     4    13 2   
    11     4    14 1   
    12     5     6 1   
    13     5    14 1   
    14     6    19 1   
    15     6    20 1   
    16     6    21 1   
    17     7    12 1   
    18     7    25 1   
    19     8    10 1   
    20     8    26 1   
    21     8    27 1   
    22     8    28 1   
    23     9    12 2   
    24    10    11 1   
    25    10    12 1   
    26    10    29 1   
    27    11    30 1   
    28    11    31 1   
    29    11    32 1   
    30    13    33 1   
    31    22    33 1   
    32    23    33 1   
    33    24    33 1   
@<TRIPOS>SUBSTRUCTURE
     1 A1B         1 TEMP              0 ****  ****    0 ROOT
