@<TRIPOS>MOLECULE
A1C
  157   162     1     0     0
SMALL
abcg2


@<TRIPOS>ATOM
      1 C01        -30.7660   -20.8920    54.3230 cc         1 A1C      -0.225100
      2 C02        -29.6930   -21.2430    55.2660 c          1 A1C       0.639200
      3 C04        -28.6210   -22.9810    56.5730 c3         1 A1C       0.176000
      4 C05        -28.9810   -24.3320    57.1720 c3         1 A1C      -0.181900
      5 C06        -30.1910   -24.2460    58.0870 c          1 A1C       0.607600
      6 C09        -27.3190   -23.0510    55.7980 ca         1 A1C      -0.106800
      7 C10        -26.1100   -22.8390    56.4490 ca         1 A1C      -0.066500
      8 C11        -24.9070   -22.8860    55.7630 ca         1 A1C      -0.136500
      9 C12        -24.9180   -23.1380    54.4070 ca         1 A1C       0.188000
     10 C14        -26.1120   -23.3510    53.7390 ca         1 A1C       0.067000
     11 C16        -27.3080   -23.3210    54.4360 ca         1 A1C      -0.070000
     12 C18        -32.0910   -21.2770    54.3560 cd         1 A1C      -0.143500
     13 C20        -31.8630   -19.8290    52.6680 cd         1 A1C      -0.137800
     14 C21        -32.3310   -19.0450    51.5510 cf         1 A1C      -0.076200
     15 C22        -31.5840   -18.5470    50.5590 ce         1 A1C      -0.274200
     16 C23        -32.2050   -17.7040    49.5120 c          1 A1C       0.604300
     17 C26        -31.7540   -16.5340    47.3980 c3         1 A1C       0.076500
     18 C27        -31.1210   -15.1650    47.5700 c3         1 A1C       0.132100
     19 C29        -28.9470   -14.5610    48.3420 c3         1 A1C       0.123600
     20 C30        -28.6720   -15.4040    49.5860 c3         1 A1C       0.136600
     21 C32        -28.3140   -13.8190    51.3050 c3         1 A1C       0.149100
     22 C33        -27.2640   -13.3690    52.2890 c3         1 A1C       0.150600
     23 C35        -24.9710   -12.7770    52.1710 c3         1 A1C       0.127600
     24 C36        -24.8610   -12.0950    53.5320 c3         1 A1C       0.120100
     25 C38        -23.0750   -13.3380    54.5830 c3         1 A1C       0.120100
     26 C39        -23.4120   -13.5380    56.0500 c3         1 A1C       0.127600
     27 C41        -25.2820   -14.9840    55.8940 c3         1 A1C       0.150600
     28 C42        -26.6090   -15.2050    56.5900 c3         1 A1C       0.149100
     29 C44        -28.2220   -16.9110    56.8670 c3         1 A1C       0.136600
     30 C45        -27.6690   -17.8640    57.9200 c3         1 A1C       0.123600
     31 C47        -28.6770   -19.6210    59.1440 c3         1 A1C       0.132100
     32 C48        -27.5550   -19.9340    60.1350 c3         1 A1C       0.076500
     33 C50        -28.1760   -22.0400    61.2760 c          1 A1C       0.604300
     34 C51        -28.0030   -23.5040    61.1660 ce         1 A1C      -0.274200
     35 C52        -28.7040   -24.3480    61.9310 cf         1 A1C      -0.076200
     36 C53        -28.6780   -25.7860    61.8590 cd         1 A1C      -0.137800
     37 C54        -27.8770   -26.6860    61.1720 cc         1 A1C      -0.030500
     38 C55        -26.7480   -26.3970    60.2810 ca         1 A1C      -0.047000
     39 C56        -26.7760   -26.7830    58.9420 ca         1 A1C      -0.066500
     40 C57        -25.6980   -26.5760    58.0970 ca         1 A1C      -0.121500
     41 C58        -24.5640   -25.9590    58.5990 ca         1 A1C       0.148500
     42 C60        -24.4900   -25.5550    59.9230 ca         1 A1C      -0.145000
     43 C61        -25.5830   -25.7950    60.7340 ca         1 A1C       0.199000
     44 C63        -28.4070   -27.9770    61.4030 cc         1 A1C      -0.225100
     45 C64        -27.8450   -29.2350    60.8790 c          1 A1C       0.639200
     46 C66        -28.3580   -31.3770    59.8350 c3         1 A1C       0.176000
     47 C67        -29.5810   -32.2930    59.6960 c3         1 A1C      -0.181900
     48 C68        -30.2320   -32.5540    61.0420 c          1 A1C       0.607600
     49 C71        -27.7200   -31.1410    58.4780 ca         1 A1C      -0.106800
     50 C72        -26.7300   -32.0010    58.0170 ca         1 A1C      -0.066500
     51 C73        -26.1470   -31.8190    56.7720 ca         1 A1C      -0.136500
     52 C74        -26.5600   -30.7630    55.9860 ca         1 A1C       0.188000
     53 C76        -27.5470   -29.8980    56.4270 ca         1 A1C       0.067000
     54 C78        -28.1310   -30.0900    57.6680 ca         1 A1C      -0.070000
     55 C80        -29.4860   -27.8340    62.2520 cd         1 A1C      -0.143500
     56 C83        -30.6200   -19.9680    53.2610 cc         1 A1C      -0.030500
     57 C84        -29.3630   -19.3070    52.9010 ca         1 A1C      -0.047000
     58 C85        -28.2720   -20.0210    52.4140 ca         1 A1C      -0.066500
     59 C86        -27.0600   -19.4060    52.1390 ca         1 A1C      -0.121500
     60 C87        -26.9370   -18.0440    52.3630 ca         1 A1C       0.148500
     61 C89        -27.9950   -17.2970    52.8530 ca         1 A1C      -0.145000
     62 C90        -29.1830   -17.9490    53.1060 ca         1 A1C       0.199000
     63 F13        -23.7700   -23.1710    53.7250 f          1 A1C      -0.157000
     64 F62        -25.5100   -25.4220    62.0170 f          1 A1C      -0.166500
     65 F75        -26.0050   -30.5640    54.7880 f          1 A1C      -0.157000
     66 F91        -30.2060   -17.2310    53.5860 f          1 A1C      -0.166500
     67 N03        -29.7100   -22.5010    55.7560 ns         1 A1C      -0.507400
     68 N07        -30.9410   -25.3570    58.1350 nt         1 A1C      -0.607500
     69 N19        -32.7300   -20.6220    53.3710 na         1 A1C      -0.084500
     70 N25        -31.4000   -17.4420    48.4620 ns         1 A1C      -0.500900
     71 N49        -27.4640   -21.3550    60.3570 ns         1 A1C      -0.500900
     72 N65        -28.7560   -30.1480    60.4800 ns         1 A1C      -0.507400
     73 N69        -29.6450   -33.5100    61.7760 nt         1 A1C      -0.607500
     74 N81        -29.6240   -26.5240    62.5190 na         1 A1C      -0.084500
     75 O08        -30.4460   -23.2390    58.7280 o          1 A1C      -0.599600
     76 O17        -28.8290   -20.4360    55.5760 o          1 A1C      -0.581100
     77 O24        -33.3590   -17.2950    49.5900 o          1 A1C      -0.606600
     78 O28        -29.7250   -15.2740    47.4130 os         1 A1C      -0.457500
     79 O31        -27.7520   -14.7820    50.4460 os         1 A1C      -0.450500
     80 O34        -26.2550   -12.6530    51.6130 os         1 A1C      -0.451500
     81 O37        -23.5440   -12.1180    54.0420 os         1 A1C      -0.451000
     82 O40        -24.7770   -13.7420    56.3290 os         1 A1C      -0.451500
     83 O43        -27.1850   -16.3810    56.0740 os         1 A1C      -0.450500
     84 O46        -28.7290   -18.2700    58.7620 os         1 A1C      -0.457500
     85 O70        -31.2020   -31.9160    61.4240 o          1 A1C      -0.599600
     86 O79        -26.6430   -29.4210    60.7810 o          1 A1C      -0.581100
     87 O82        -28.9030   -21.5010    62.1030 o          1 A1C      -0.606600
     88 CL15       -26.0940   -23.6250    52.0370 cl         1 A1C      -0.178500
     89 CL59       -23.2100   -25.6860    57.5590 cl         1 A1C      -0.192000
     90 CL77       -28.0310   -28.5840    55.4200 cl         1 A1C      -0.178500
     91 CL88       -25.4360   -17.2490    52.0350 cl         1 A1C      -0.192000
     92 H041       -28.4790   -22.2850    57.4020 h1         1 A1C       0.085200
     93 H052       -28.1340   -24.6720    57.7780 hc         1 A1C       0.071700
     94 H051       -29.1180   -25.0850    56.3910 hc         1 A1C       0.071700
     95 H101       -26.1000   -22.6230    57.5100 ha         1 A1C       0.117000
     96 H111       -23.9690   -22.7120    56.2710 ha         1 A1C       0.140000
     97 H161       -28.2330   -23.4830    53.8970 ha         1 A1C       0.125000
     98 H181       -32.6140   -21.9380    55.0270 h4         1 A1C       0.160000
     99 H211       -33.4000   -18.8560    51.5280 ha         1 A1C       0.195500
    100 H221       -30.5230   -18.7500    50.4900 ha         1 A1C       0.183000
    101 H262       -31.4460   -16.9650    46.4430 h1         1 A1C       0.064200
    102 H261       -32.8350   -16.4280    47.3690 h1         1 A1C       0.064200
    103 H271       -31.5300   -14.4810    46.8170 h1         1 A1C       0.051450
    104 H272       -31.3880   -14.7640    48.5550 h1         1 A1C       0.051450
    105 H292       -27.9970   -14.3250    47.8560 h1         1 A1C       0.045200
    106 H291       -29.4210   -13.6090    48.6090 h1         1 A1C       0.045200
    107 H301       -29.6100   -15.6380    50.1100 h1         1 A1C       0.054700
    108 H302       -28.2300   -16.3550    49.2780 h1         1 A1C       0.054700
    109 H322       -28.7030   -12.9530    50.7540 h1         1 A1C       0.034200
    110 H321       -29.1550   -14.2410    51.8730 h1         1 A1C       0.034200
    111 H331       -27.7480   -12.7520    53.0580 h1         1 A1C       0.036200
    112 H332       -26.8460   -14.2460    52.8000 h1         1 A1C       0.036200
    113 H351       -24.6890   -13.8370    52.2470 h1         1 A1C       0.052450
    114 H352       -24.2770   -12.3060    51.4720 h1         1 A1C       0.052450
    115 H361       -25.1250   -11.0400    53.4180 h1         1 A1C       0.052200
    116 H362       -25.5770   -12.5250    54.2390 h1         1 A1C       0.052200
    117 H382       -23.3950   -14.2050    53.9950 h1         1 A1C       0.052200
    118 H381       -21.9840   -13.3090    54.5100 h1         1 A1C       0.052200
    119 H391       -22.8110   -14.3820    56.4200 h1         1 A1C       0.052450
    120 H392       -23.1090   -12.6530    56.6150 h1         1 A1C       0.052450
    121 H412       -25.4310   -15.0070    54.8060 h1         1 A1C       0.036200
    122 H411       -24.5890   -15.8000    56.1430 h1         1 A1C       0.036200
    123 H421       -26.4430   -15.2740    57.6730 h1         1 A1C       0.034200
    124 H422       -27.2690   -14.3450    56.4180 h1         1 A1C       0.034200
    125 H442       -28.8070   -16.1160    57.3480 h1         1 A1C       0.054700
    126 H441       -28.8980   -17.4550    56.2040 h1         1 A1C       0.054700
    127 H451       -27.2150   -18.7250    57.4140 h1         1 A1C       0.045200
    128 H452       -26.8750   -17.3770    58.5010 h1         1 A1C       0.045200
    129 H472       -29.6390   -19.8650    59.6000 h1         1 A1C       0.051450
    130 H471       -28.5580   -20.2630    58.2620 h1         1 A1C       0.051450
    131 H481       -26.5930   -19.6010    59.7420 h1         1 A1C       0.064200
    132 H482       -27.7190   -19.4160    61.0800 h1         1 A1C       0.064200
    133 H511       -27.3360   -23.8660    60.3940 ha         1 A1C       0.183000
    134 H521       -29.3950   -23.9270    62.6560 ha         1 A1C       0.195500
    135 H561       -27.6680   -27.2540    58.5500 ha         1 A1C       0.116500
    136 H571       -25.7480   -26.8880    57.0640 ha         1 A1C       0.136500
    137 H601       -23.6060   -25.0770    60.3230 ha         1 A1C       0.148000
    138 H661       -27.6190   -31.8790    60.4670 h1         1 A1C       0.085200
    139 H671       -30.3140   -31.8280    59.0340 hc         1 A1C       0.071700
    140 H672       -29.2600   -33.2250    59.2290 hc         1 A1C       0.071700
    141 H721       -26.3960   -32.8210    58.6410 ha         1 A1C       0.117000
    142 H731       -25.3720   -32.4850    56.4160 ha         1 A1C       0.140000
    143 H781       -28.9010   -29.4050    57.9980 ha         1 A1C       0.125000
    144 H801       -30.1360   -28.5730    62.6920 h4         1 A1C       0.160000
    145 H851       -28.3720   -21.0850    52.2470 ha         1 A1C       0.116500
    146 H861       -26.2290   -19.9850    51.7590 ha         1 A1C       0.136500
    147 H891       -27.9020   -16.2410    53.0460 ha         1 A1C       0.148000
    148 H031       -30.3360   -23.1750    55.3440 hn         1 A1C       0.319000
    149 H071       -31.7280   -25.4130    58.7610 hn         1 A1C       0.315250
    150 H072       -30.7080   -26.1800    57.6080 hn         1 A1C       0.315250
    151 H191       -33.7140   -20.7170    53.1650 hn         1 A1C       0.357500
    152 H251       -30.4620   -17.8130    48.4660 hn         1 A1C       0.312000
    153 H491       -26.9350   -21.8840    59.6830 hn         1 A1C       0.312000
    154 H651       -29.7280   -29.8810    60.4460 hn         1 A1C       0.319000
    155 H691       -29.9810   -33.7250    62.7010 hn         1 A1C       0.315250
    156 H692       -28.8590   -34.0380    61.4360 hn         1 A1C       0.315250
    157 H811       -30.3400   -26.1340    63.1140 hn         1 A1C       0.357500
@<TRIPOS>BOND
     1     1     2 1   
     2     1    12 2   
     3     1    56 1   
     4     2    67 1   
     5     2    76 2   
     6     3     4 1   
     7     3     6 1   
     8     3    67 1   
     9     3    92 1   
    10     4     5 1   
    11     4    93 1   
    12     4    94 1   
    13     5    68 1   
    14     5    75 2   
    15     6     7 ar  
    16     6    11 ar  
    17     7     8 ar  
    18     7    95 1   
    19     8     9 ar  
    20     8    96 1   
    21     9    10 ar  
    22     9    63 1   
    23    10    11 ar  
    24    10    88 1   
    25    11    97 1   
    26    12    69 1   
    27    12    98 1   
    28    13    14 1   
    29    13    56 2   
    30    13    69 1   
    31    14    15 2   
    32    14    99 1   
    33    15    16 1   
    34    15   100 1   
    35    16    70 1   
    36    16    77 2   
    37    17    18 1   
    38    17    70 1   
    39    17   101 1   
    40    17   102 1   
    41    18    78 1   
    42    18   103 1   
    43    18   104 1   
    44    19    20 1   
    45    19    78 1   
    46    19   105 1   
    47    19   106 1   
    48    20    79 1   
    49    20   107 1   
    50    20   108 1   
    51    21    22 1   
    52    21    79 1   
    53    21   109 1   
    54    21   110 1   
    55    22    80 1   
    56    22   111 1   
    57    22   112 1   
    58    23    24 1   
    59    23    80 1   
    60    23   113 1   
    61    23   114 1   
    62    24    81 1   
    63    24   115 1   
    64    24   116 1   
    65    25    26 1   
    66    25    81 1   
    67    25   117 1   
    68    25   118 1   
    69    26    82 1   
    70    26   119 1   
    71    26   120 1   
    72    27    28 1   
    73    27    82 1   
    74    27   121 1   
    75    27   122 1   
    76    28    83 1   
    77    28   123 1   
    78    28   124 1   
    79    29    30 1   
    80    29    83 1   
    81    29   125 1   
    82    29   126 1   
    83    30    84 1   
    84    30   127 1   
    85    30   128 1   
    86    31    32 1   
    87    31    84 1   
    88    31   129 1   
    89    31   130 1   
    90    32    71 1   
    91    32   131 1   
    92    32   132 1   
    93    33    34 1   
    94    33    71 1   
    95    33    87 2   
    96    34    35 2   
    97    34   133 1   
    98    35    36 1   
    99    35   134 1   
   100    36    37 2   
   101    36    74 1   
   102    37    38 1   
   103    37    44 1   
   104    38    39 ar  
   105    38    43 ar  
   106    39    40 ar  
   107    39   135 1   
   108    40    41 ar  
   109    40   136 1   
   110    41    42 ar  
   111    41    89 1   
   112    42    43 ar  
   113    42   137 1   
   114    43    64 1   
   115    44    45 1   
   116    44    55 2   
   117    45    72 1   
   118    45    86 2   
   119    46    47 1   
   120    46    49 1   
   121    46    72 1   
   122    46   138 1   
   123    47    48 1   
   124    47   139 1   
   125    47   140 1   
   126    48    73 1   
   127    48    85 2   
   128    49    50 ar  
   129    49    54 ar  
   130    50    51 ar  
   131    50   141 1   
   132    51    52 ar  
   133    51   142 1   
   134    52    53 ar  
   135    52    65 1   
   136    53    54 ar  
   137    53    90 1   
   138    54   143 1   
   139    55    74 1   
   140    55   144 1   
   141    56    57 1   
   142    57    58 ar  
   143    57    62 ar  
   144    58    59 ar  
   145    58   145 1   
   146    59    60 ar  
   147    59   146 1   
   148    60    61 ar  
   149    60    91 1   
   150    61    62 ar  
   151    61   147 1   
   152    62    66 1   
   153    67   148 1   
   154    68   149 1   
   155    68   150 1   
   156    69   151 1   
   157    70   152 1   
   158    71   153 1   
   159    72   154 1   
   160    73   155 1   
   161    73   156 1   
   162    74   157 1   
@<TRIPOS>SUBSTRUCTURE
     1 A1C         1 TEMP              0 ****  ****    0 ROOT
