@<TRIPOS>MOLECULE
A1C
   25    26     1     0     0
SMALL
abcg2


@<TRIPOS>ATOM
      1 C10        -28.0960    10.6110   -13.9520 c3         1 A1C      -0.007800
      2 C01        -32.7690    10.4610   -18.0290 ca         1 A1C      -0.197600
      3 C02        -33.1830     9.3010   -17.3520 ca         1 A1C      -0.130000
      4 C03        -32.4770     8.8160   -16.2720 ca         1 A1C      -0.085000
      5 C04        -31.3390     9.5030   -15.8600 ca         1 A1C      -0.211000
      6 C05        -30.9070    10.6640   -16.5200 ca         1 A1C      -0.045800
      7 C06        -31.6300    11.1320   -17.6160 ca         1 A1C      -0.014000
      8 C07        -29.7070    11.1790   -15.9190 cc         1 A1C      -0.075500
      9 C08        -29.2560    10.4410   -14.8760 cd         1 A1C       0.044400
     10 S09        -30.2940     9.0870   -14.5540 ss         1 A1C       0.207400
     11 P11        -28.5290    11.4690   -12.3020 p5         1 A1C       1.240500
     12 O12        -29.5630    10.5070   -11.7300 o          1 A1C      -0.883833
     13 O13        -29.0650    12.8180   -12.7630 o          1 A1C      -0.883833
     14 O14        -27.1860    11.5040   -11.5820 o          1 A1C      -0.883833
     15 F15        -27.0780    11.2500   -14.6150 f          1 A1C      -0.143500
     16 F16        -27.6090     9.3370   -13.7080 f          1 A1C      -0.143500
     17 O19        -32.9270    11.7410   -20.0180 o          1 A1C      -0.633100
     18 N20        -34.7700    10.6200   -19.3760 nt         1 A1C      -0.617000
     19 H1         -34.0510     8.7460   -17.6840 ha         1 A1C       0.075000
     20 H2         -32.7990     7.9160   -15.7650 ha         1 A1C       0.101000
     21 H3         -31.3080    12.0180   -18.1470 ha         1 A1C       0.134000
     22 H6         -35.3010    10.9780   -20.1530 hn         1 A1C       0.298000
     23 H7         -35.2850    10.1380   -18.6600 hn         1 A1C       0.298000
     24 BR1        -28.9100    12.7340   -16.5910 br         1 A1C      -0.068700
     25 C18        -33.4900    11.0000   -19.2260 c          1 A1C       0.624700
@<TRIPOS>BOND
     1     1     9 1   
     2     1    11 1   
     3     1    15 1   
     4     1    16 1   
     5     2     3 ar  
     6     2     7 ar  
     7     2    25 1   
     8     3     4 ar  
     9     3    19 1   
    10     4     5 ar  
    11     4    20 1   
    12     5     6 ar  
    13     5    10 1   
    14     6     7 ar  
    15     6     8 1   
    16     7    21 1   
    17     8     9 2   
    18     8    24 1   
    19     9    10 1   
    20    11    12 1   
    21    11    13 1   
    22    11    14 1   
    23    17    25 2   
    24    18    22 1   
    25    18    23 1   
    26    18    25 1   
@<TRIPOS>SUBSTRUCTURE
     1 A1C         1 TEMP              0 ****  ****    0 ROOT
