@<TRIPOS>MOLECULE
A1C
   21    21     1     0     0
SMALL
abcg2


@<TRIPOS>ATOM
      1 C1           9.1640    -2.8340   -18.4620 c          1 A1C       0.603100
      2 C2          10.3470    -3.6380   -18.9860 c3         1 A1C      -0.026400
      3 C3           8.6930    -4.7740   -16.9820 c6         1 A1C       0.067500
      4 C4           8.0850    -4.8830   -15.5970 c6         1 A1C       0.144100
      5 C5           6.1990    -3.8530   -16.6020 c6         1 A1C       0.144100
      6 C6           7.2040    -2.8040   -17.0330 c6         1 A1C       0.067500
      7 N1           8.4100    -3.4530   -17.5300 n          1 A1C      -0.419800
      8 O1           8.9080    -1.7130   -18.8680 o          1 A1C      -0.576100
      9 O2           6.6840    -4.7130   -15.5900 os         1 A1C      -0.451000
     10 S1          11.2890    -2.8040   -20.2810 sh         1 A1C      -0.388800
     11 H1          11.0650    -3.8190   -18.1830 h1         1 A1C       0.084700
     12 H2          10.0230    -4.6200   -19.3340 h1         1 A1C       0.084700
     13 H5           9.7670    -4.9310   -16.8810 h1         1 A1C       0.059450
     14 H6           8.3020    -5.8740   -15.1930 h1         1 A1C       0.053200
     15 H7           8.5690    -4.1500   -14.9380 h1         1 A1C       0.053200
     16 H8           5.8910    -4.4330   -17.4820 h1         1 A1C       0.053200
     17 H9           5.3080    -3.3530   -16.2180 h1         1 A1C       0.053200
     18 H10          6.7570    -2.2020   -17.8230 h1         1 A1C       0.059450
     19 H11          7.4380    -2.1280   -16.2040 h1         1 A1C       0.059450
     20 H3          10.3410    -2.8100   -21.2240 hs         1 A1C       0.214800
     21 H4           8.3070    -5.5650   -17.6320 h1         1 A1C       0.059450
@<TRIPOS>BOND
     1     1     2 1   
     2     1     7 1   
     3     1     8 2   
     4     2    10 1   
     5     2    11 1   
     6     2    12 1   
     7     3     4 1   
     8     3     7 1   
     9     3    13 1   
    10     3    21 1   
    11     4     9 1   
    12     4    14 1   
    13     4    15 1   
    14     5     6 1   
    15     5     9 1   
    16     5    16 1   
    17     5    17 1   
    18     6     7 1   
    19     6    18 1   
    20     6    19 1   
    21    10    20 1   
@<TRIPOS>SUBSTRUCTURE
     1 A1C         1 TEMP              0 ****  ****    0 ROOT
