@<TRIPOS>MOLECULE
A1C
   57    61     1     0     0
SMALL
abcg2


@<TRIPOS>ATOM
      1 N1         -22.9920    -8.4160   -16.3720 nh         1 A1C      -0.798400
      2 N3         -18.0200    -6.0700   -17.5180 nu         1 A1C      -0.920900
      3 C4         -21.7200    -7.9000   -16.5910 ca         1 A1C       0.343000
      4 C5         -23.7420    -7.9330   -15.2280 c6         1 A1C       0.204300
      5 C6         -25.2290    -8.2030   -15.4020 c6         1 A1C      -0.082900
      6 C7         -25.5090    -9.6770   -15.6490 c6         1 A1C       0.163500
      7 C8         -24.6910   -10.1260   -16.8500 c6         1 A1C      -0.082900
      8 C10        -21.0820    -7.0670   -15.6670 ca         1 A1C      -0.212000
      9 C13        -18.0400    -4.9370   -18.2660 ca         1 A1C       0.393900
     10 C15        -18.1010    -2.7130   -19.7150 ca         1 A1C      -0.070000
     11 C17        -20.6080    -2.6210   -19.2250 cc         1 A1C      -0.241000
     12 C20        -24.2190    -2.6390   -18.8310 ca         1 A1C      -0.132000
     13 C21        -24.5270    -3.9100   -18.3880 ca         1 A1C      -0.094000
     14 C22        -23.5190    -4.8630   -18.1840 ca         1 A1C      -0.145000
     15 C24        -21.8430    -3.2860   -18.8640 ca         1 A1C      -0.053800
     16 C1         -19.7500    -8.6110   -20.2450 c3         1 A1C       0.148900
     17 C2         -19.8350    -7.6000   -18.0970 ca         1 A1C       0.163100
     18 C3         -21.0640    -8.1710   -17.8040 ca         1 A1C      -0.247000
     19 N2         -26.9280    -9.8870   -15.8920 n8         1 A1C      -0.995200
     20 C9         -23.2160    -9.8320   -16.6390 c6         1 A1C       0.204300
     21 C11        -19.8570    -6.4930   -15.9770 ca         1 A1C      -0.019000
     22 C12        -19.2210    -6.7350   -17.1770 ca         1 A1C       0.201000
     23 N4         -16.8720    -4.5210   -18.7670 nb         1 A1C      -0.240000
     24 C14        -16.9300    -3.4170   -19.4870 ca         1 A1C       0.158900
     25 CL1        -18.0230    -1.3140   -20.7270 cl         1 A1C      -0.197000
     26 C16        -19.2810    -3.2020   -19.1310 ca         1 A1C       0.299800
     27 C18        -20.9660    -1.3420   -19.6040 cd         1 A1C      -0.107100
     28 N5         -22.3020    -1.1880   -19.5040 na         1 A1C      -0.214700
     29 C19        -22.8770    -2.3500   -19.0630 ca         1 A1C      -0.067200
     30 C23        -22.1890    -4.5680   -18.4150 ca         1 A1C      -0.043000
     31 N6         -19.2040    -4.3230   -18.4180 nb         1 A1C      -0.249000
     32 H18        -17.1620    -6.5990   -17.5510 hn         1 A1C       0.511000
     33 H5         -23.3890    -8.3900   -14.2900 h1         1 A1C       0.038950
     34 H6         -23.5940    -6.8570   -15.1350 h1         1 A1C       0.038950
     35 H7         -25.7540    -7.8570   -14.5070 hc         1 A1C       0.056700
     36 H8         -25.6090    -7.6200   -16.2470 hc         1 A1C       0.056700
     37 H9         -25.1440   -10.2360   -14.7710 h1         1 A1C       0.011700
     38 H13        -25.0450    -9.6040   -17.7440 hc         1 A1C       0.056700
     39 H12        -24.8170   -11.1980   -17.0240 hc         1 A1C       0.056700
     40 H16        -21.5260    -6.8520   -14.7060 ha         1 A1C       0.119000
     41 H22        -24.9880    -1.8940   -18.9930 ha         1 A1C       0.110000
     42 H23        -25.5600    -4.1720   -18.1950 ha         1 A1C       0.109000
     43 H24        -23.7870    -5.8540   -17.8360 ha         1 A1C       0.119000
     44 H2         -19.0520    -8.6230   -21.0780 h1         1 A1C       0.042367
     45 H3         -19.8960    -9.6350   -19.8930 h1         1 A1C       0.042367
     46 H1         -20.7090    -8.2190   -20.5950 h1         1 A1C       0.042367
     47 H4         -21.5580    -8.7880   -18.5410 ha         1 A1C       0.122000
     48 H10        -27.1030   -10.8770   -16.0190 hn         1 A1C       0.394500
     49 H26        -27.4530    -9.6230   -15.0670 hn         1 A1C       0.394500
     50 H15        -22.6590   -10.1360   -17.5220 h1         1 A1C       0.038950
     51 H14        -22.8360   -10.4390   -15.8030 h1         1 A1C       0.038950
     52 H17        -19.3840    -5.8290   -15.2650 ha         1 A1C       0.126000
     53 H19        -16.0000    -3.0620   -19.9200 h4         1 A1C       0.029100
     54 H20        -20.3590    -0.5100   -19.9130 h4         1 A1C       0.223000
     55 H21        -22.7960    -0.3360   -19.7180 hn         1 A1C       0.351000
     56 H25        -21.4290    -5.3120   -18.2380 ha         1 A1C       0.143000
     57 O1         -19.1740    -7.7870   -19.2520 os         1 A1C      -0.339100
@<TRIPOS>BOND
     1     1     3 1   
     2     1     4 1   
     3     1    20 1   
     4     2     9 1   
     5     2    22 1   
     6     2    32 1   
     7     3     8 ar  
     8     3    18 ar  
     9     4     5 1   
    10     4    33 1   
    11     4    34 1   
    12     5     6 1   
    13     5    35 1   
    14     5    36 1   
    15     6     7 1   
    16     6    19 1   
    17     6    37 1   
    18     7    20 1   
    19     7    38 1   
    20     7    39 1   
    21     8    21 ar  
    22     8    40 1   
    23     9    23 ar  
    24     9    31 ar  
    25    10    24 ar  
    26    10    25 1   
    27    10    26 ar  
    28    11    15 1   
    29    11    26 1   
    30    11    27 2   
    31    12    13 ar  
    32    12    29 ar  
    33    12    41 1   
    34    13    14 ar  
    35    13    42 1   
    36    14    30 ar  
    37    14    43 1   
    38    15    29 ar  
    39    15    30 ar  
    40    16    44 1   
    41    16    45 1   
    42    16    46 1   
    43    16    57 1   
    44    17    18 ar  
    45    17    22 ar  
    46    17    57 1   
    47    18    47 1   
    48    19    48 1   
    49    19    49 1   
    50    20    50 1   
    51    20    51 1   
    52    21    22 ar  
    53    21    52 1   
    54    23    24 ar  
    55    24    53 1   
    56    26    31 ar  
    57    27    28 1   
    58    27    54 1   
    59    28    29 1   
    60    28    55 1   
    61    30    56 1   
@<TRIPOS>SUBSTRUCTURE
     1 A1C         1 TEMP              0 ****  ****    0 ROOT
