@<TRIPOS>MOLECULE
A1C
   52    56     1     0     0
SMALL
abcg2


@<TRIPOS>ATOM
      1 C1           3.1480     6.1940    23.0350 c3         1 A1C       0.156100
      2 C3           0.8510     5.6050    23.5750 c6         1 A1C       0.153800
      3 C4           0.3520     4.3350    22.9010 c6         1 A1C       0.212800
      4 C5           1.4720     6.2490    21.3300 c6         1 A1C       0.153800
      5 C6           0.0060     5.9630    21.0660 c6         1 A1C       0.212800
      6 N2           1.7470     6.4010    22.7490 n3         1 A1C      -0.723600
      7 C8          -1.2900     3.8880    21.1390 ca         1 A1C       0.570900
      8 N7          -0.3580     4.6960    21.6840 nh         1 A1C      -0.791300
      9 C9          -1.4960     2.5670    21.5950 ca         1 A1C      -0.181000
     10 C10         -2.4670     1.8150    20.9890 cp         1 A1C       0.001000
     11 C11         -2.6740     0.4120    21.3990 cp         1 A1C      -0.008000
     12 C12         -2.8530     0.0810    22.7370 ca         1 A1C      -0.145000
     13 C13         -3.0180    -1.2520    23.0810 ca         1 A1C       0.333900
     14 N14         -3.0050    -2.2430    22.2000 nb         1 A1C      -0.659000
     15 C15         -2.8240    -1.9250    20.9230 ca         1 A1C       0.333900
     16 C16         -2.6590    -0.6260    20.4720 ca         1 A1C      -0.145000
     17 C17         -3.2110     2.4220    19.9540 cq         1 A1C       0.290500
     18 C18         -4.3460     1.7380    19.2910 cq         1 A1C      -0.118500
     19 C19         -5.4390     1.3860    20.0430 ca         1 A1C      -0.089000
     20 C20         -6.5450     0.7350    19.4660 ca         1 A1C      -0.109000
     21 C21         -6.5470     0.4380    18.1330 ca         1 A1C      -0.092000
     22 C22         -5.4390     0.7740    17.3210 ca         1 A1C      -0.040000
     23 C23         -4.3190     1.4330    17.8990 ca         1 A1C      -0.013000
     24 C24         -3.2080     1.7220    17.0700 ca         1 A1C      -0.090000
     25 C25         -3.2170     1.3920    15.7410 ca         1 A1C      -0.110000
     26 C26         -4.3370     0.7560    15.1670 ca         1 A1C      -0.106000
     27 C27         -5.4200     0.4530    15.9430 ca         1 A1C      -0.101000
     28 N28         -2.9450     3.6520    19.5620 nb         1 A1C      -0.263000
     29 N29         -2.0120     4.3760    20.1250 nb         1 A1C      -0.407000
     30 H1           3.3550     6.3980    24.0860 h1         1 A1C       0.032033
     31 H2           3.5030     5.1760    22.8080 h1         1 A1C       0.032033
     32 H3           3.7500     6.8870    22.4430 h1         1 A1C       0.032033
     33 H5           1.3560     5.3330    24.5030 h1         1 A1C       0.052200
     34 H6          -0.3230     3.8260    23.5920 h1         1 A1C       0.057450
     35 H7           1.1810     3.6480    22.6930 h1         1 A1C       0.057450
     36 H8           2.0610     5.4290    20.8870 h1         1 A1C       0.052200
     37 H9           1.7580     7.1590    20.7960 h1         1 A1C       0.052200
     38 H10         -0.6210     6.7820    21.4360 h1         1 A1C       0.057450
     39 H11         -0.1530     5.9010    19.9910 h1         1 A1C       0.057450
     40 H13         -0.8750     2.1330    22.3660 ha         1 A1C       0.132000
     41 H14         -2.8810     0.8460    23.5020 ha         1 A1C       0.130000
     42 H15         -3.1680    -1.5260    24.1200 h4         1 A1C       0.021600
     43 H16         -2.8070    -2.7460    20.2150 h4         1 A1C       0.021600
     44 H17         -2.5060    -0.4370    19.4180 ha         1 A1C       0.130000
     45 H18         -5.4560     1.6150    21.1020 ha         1 A1C       0.115000
     46 H19         -7.3930     0.4750    20.0860 ha         1 A1C       0.116000
     47 H20         -7.3950    -0.0620    17.6800 ha         1 A1C       0.114000
     48 H21         -2.3360     2.2060    17.4880 ha         1 A1C       0.121000
     49 H22         -2.3570     1.6190    15.1250 ha         1 A1C       0.113000
     50 H23         -4.3310     0.5040    14.1150 ha         1 A1C       0.113000
     51 H24         -6.2820    -0.0440    15.5140 ha         1 A1C       0.112000
     52 H4          -0.0220     6.2000    23.8640 h1         1 A1C       0.052200
@<TRIPOS>BOND
     1     1     6 1   
     2     1    30 1   
     3     1    31 1   
     4     1    32 1   
     5     2     3 1   
     6     2     6 1   
     7     2    33 1   
     8     2    52 1   
     9     3     8 1   
    10     3    34 1   
    11     3    35 1   
    12     4     5 1   
    13     4     6 1   
    14     4    36 1   
    15     4    37 1   
    16     5     8 1   
    17     5    38 1   
    18     5    39 1   
    19     7     8 1   
    20     7     9 ar  
    21     7    29 ar  
    22     9    10 ar  
    23     9    40 1   
    24    10    11 1   
    25    10    17 1   
    26    11    12 ar  
    27    11    16 ar  
    28    12    13 ar  
    29    12    41 1   
    30    13    14 ar  
    31    13    42 1   
    32    14    15 ar  
    33    15    16 ar  
    34    15    43 1   
    35    16    44 1   
    36    17    18 1   
    37    17    28 2   
    38    18    19 1   
    39    18    23 2   
    40    19    20 ar  
    41    19    45 1   
    42    20    21 ar  
    43    20    46 1   
    44    21    22 ar  
    45    21    47 1   
    46    22    23 ar  
    47    22    27 ar  
    48    23    24 ar  
    49    24    25 ar  
    50    24    48 1   
    51    25    26 ar  
    52    25    49 1   
    53    26    27 ar  
    54    26    50 1   
    55    27    51 1   
    56    28    29 ar  
@<TRIPOS>SUBSTRUCTURE
     1 A1C         1 TEMP              0 ****  ****    0 ROOT
