@<TRIPOS>MOLECULE
A1C
   59    61     1     0     0
SMALL
abcg2


@<TRIPOS>ATOM
      1 C02         31.3470    31.0790    41.9900 c5         1 A1C       0.146300
      2 C03         31.7310    32.2640    42.8740 c5         1 A1C       0.136300
      3 C04         31.5620    31.6720    44.2890 c5         1 A1C       0.307700
      4 C06         33.8480    32.0890    45.1510 c          1 A1C       0.619000
      5 C08         34.1360    33.3010    47.3070 c          1 A1C       0.587200
      6 C09         32.7000    33.3900    47.3830 cc         1 A1C      -0.376200
      7 C10         31.9470    32.8570    46.4020 cd         1 A1C       0.012600
      8 C15         31.9650    29.9320    42.7920 c5         1 A1C       0.094300
      9 C16         31.3970    28.5580    42.5110 c3         1 A1C       0.165600
     10 C18         33.3150    27.1370    42.6300 c3         1 A1C       0.156600
     11 C19         33.9490    26.0610    43.4890 c3         1 A1C      -0.114400
     12 C20         33.1590    24.7450    43.4750 c3         1 A1C       0.182800
     13 C22         35.0290    23.2720    44.0970 c6         1 A1C       0.175800
     14 C23         35.2530    21.8600    44.6660 c6         1 A1C      -0.057700
     15 C24         34.9230    20.7780    43.6520 c3         1 A1C       0.165600
     16 C26         34.4270    21.6500    45.9410 c6         1 A1C       0.179300
     17 C28         33.4000    23.9360    45.7680 c6         1 A1C       0.149800
     18 C29         34.1980    22.9710    46.6540 c6         1 A1C       0.128300
     19 N05         32.4730    32.2270    45.3020 n          1 A1C      -0.331000
     20 N07         34.5930    32.6380    46.1690 ns         1 A1C      -0.469500
     21 N21         33.6560    23.6900    44.3500 n3         1 A1C      -0.744600
     22 O01         29.9270    31.0040    41.9160 oh         1 A1C      -0.695000
     23 O11         34.9370    33.7390    48.1270 o          1 A1C      -0.526000
     24 O12         34.3660    31.5310    44.1980 o          1 A1C      -0.567000
     25 O13         31.7160    30.2780    44.1770 os         1 A1C      -0.422000
     26 O14         30.9300    33.4070    42.6580 oh         1 A1C      -0.685000
     27 O17         32.0730    27.5280    43.2160 os         1 A1C      -0.448000
     28 O25         35.8930    20.8200    42.6000 oh         1 A1C      -0.676000
     29 O27         35.1200    20.7300    46.7870 oh         1 A1C      -0.670000
     30 O30         33.4990    22.6880    47.8720 oh         1 A1C      -0.674000
     31 H1          31.7860    31.1550    40.9930 h1         1 A1C       0.062700
     32 H2          32.7810    32.4870    42.6940 h1         1 A1C       0.071700
     33 H3          30.5610    31.9050    44.6530 h2         1 A1C       0.091700
     34 H4          32.2480    33.8790    48.2310 ha         1 A1C       0.226000
     35 H5          30.8670    32.8980    46.4280 h4         1 A1C       0.211000
     36 H6          33.0460    29.9380    42.6260 h1         1 A1C       0.077700
     37 H7          30.3570    28.5210    42.8330 h1         1 A1C       0.056200
     38 H8          31.4340    28.3700    41.4300 h1         1 A1C       0.056200
     39 H9          33.1320    26.7670    41.6120 h1         1 A1C       0.026200
     40 H10         33.9870    27.9980    42.5550 h1         1 A1C       0.026200
     41 H11         34.9610    25.8870    43.1140 hc         1 A1C       0.053700
     42 H12         34.0470    26.4420    44.5090 hc         1 A1C       0.053700
     43 H13         33.1480    24.3580    42.4510 h1         1 A1C       0.057200
     44 H14         32.1210    24.9420    43.7530 h1         1 A1C       0.057200
     45 H16         35.1960    23.2570    43.0190 h1         1 A1C       0.042700
     46 H17         36.3050    21.7550    44.9450 hc         1 A1C       0.079700
     47 H18         33.9170    20.9490    43.2520 h1         1 A1C       0.033200
     48 H19         34.9360    19.7970    44.1390 h1         1 A1C       0.033200
     49 H20         33.4460    21.2320    45.6830 h1         1 A1C       0.054700
     50 H21         33.6390    24.9660    46.0690 h1         1 A1C       0.044700
     51 H22         32.3360    23.7770    45.9650 h1         1 A1C       0.044700
     52 H23         35.1760    23.3980    46.8980 h1         1 A1C       0.042700
     53 H24         35.5960    32.5440    46.0660 hn         1 A1C       0.342500
     54 H26         29.6860    30.3850    41.2160 ho         1 A1C       0.505000
     55 H27         31.4410    34.1880    42.9040 ho         1 A1C       0.509000
     56 H28         35.6030    20.2270    41.8970 ho         1 A1C       0.441000
     57 H29         34.6490    20.7260    47.6320 ho         1 A1C       0.457000
     58 H30         33.6870    23.3870    48.5080 ho         1 A1C       0.449000
     59 H15         35.7660    23.9710    44.5220 h1         1 A1C       0.042700
@<TRIPOS>BOND
     1     1     2 1   
     2     1     8 1   
     3     1    22 1   
     4     1    31 1   
     5     2     3 1   
     6     2    26 1   
     7     2    32 1   
     8     3    19 1   
     9     3    25 1   
    10     3    33 1   
    11     4    19 1   
    12     4    20 1   
    13     4    24 2   
    14     5     6 1   
    15     5    20 1   
    16     5    23 2   
    17     6     7 2   
    18     6    34 1   
    19     7    19 1   
    20     7    35 1   
    21     8     9 1   
    22     8    25 1   
    23     8    36 1   
    24     9    27 1   
    25     9    37 1   
    26     9    38 1   
    27    10    11 1   
    28    10    27 1   
    29    10    39 1   
    30    10    40 1   
    31    11    12 1   
    32    11    41 1   
    33    11    42 1   
    34    12    21 1   
    35    12    43 1   
    36    12    44 1   
    37    13    14 1   
    38    13    21 1   
    39    13    45 1   
    40    13    59 1   
    41    14    15 1   
    42    14    16 1   
    43    14    46 1   
    44    15    28 1   
    45    15    47 1   
    46    15    48 1   
    47    16    18 1   
    48    16    29 1   
    49    16    49 1   
    50    17    18 1   
    51    17    21 1   
    52    17    50 1   
    53    17    51 1   
    54    18    30 1   
    55    18    52 1   
    56    20    53 1   
    57    22    54 1   
    58    26    55 1   
    59    28    56 1   
    60    29    57 1   
    61    30    58 1   
@<TRIPOS>SUBSTRUCTURE
     1 A1C         1 TEMP              0 ****  ****    0 ROOT
