@<TRIPOS>MOLECULE
A1C
   26    28     1     0     0
SMALL
abcg2


@<TRIPOS>ATOM
      1 C10         12.5660    69.8540   144.6860 cc         1 A1C       0.304900
      2 C01          7.4800    72.1860   143.4850 ca         1 A1C      -0.143600
      3 C02          7.4420    72.4430   142.1370 ca         1 A1C      -0.045000
      4 C03          6.2930    73.0230   141.5610 ca         1 A1C       0.209000
      5 C04          5.1840    73.3410   142.3780 ca         1 A1C       0.239000
      6 C05          5.2410    73.0580   143.7590 ca         1 A1C      -0.080000
      7 C06          6.3570    72.4840   144.2950 ca         1 A1C      -0.061000
      8 C07          4.0810    74.1340   140.5700 ca         1 A1C       0.306900
      9 C08          5.1910    73.8090   139.7490 ca         1 A1C       0.297900
     10 C09          8.6490    71.5320   144.1450 c          1 A1C       0.621700
     11 C11         11.0720    71.2550   143.9280 cd         1 A1C       0.569300
     12 C12         13.4240    70.8210   144.2820 cd         1 A1C      -0.269000
     13 N01          4.0730    73.9070   141.8520 nb         1 A1C      -0.622000
     14 N02          6.2710    73.2650   140.2290 nb         1 A1C      -0.620000
     15 N03          9.8610    71.8100   143.5650 ns         1 A1C      -0.484400
     16 N04         11.2390    70.1000   144.4780 nc         1 A1C      -0.649000
     17 O01          8.5130    70.8310   145.1220 o          1 A1C      -0.517100
     18 S01         12.5360    72.1360   143.6240 ss         1 A1C      -0.088400
     19 H1          12.8670    68.9190   145.1370 h4         1 A1C       0.046100
     20 H2           8.2610    72.1940   141.4740 ha         1 A1C       0.136000
     21 H3           4.3860    73.3020   144.3770 ha         1 A1C       0.141000
     22 H4           6.3940    72.2630   145.3530 ha         1 A1C       0.143000
     23 H5           3.2000    74.5870   140.1290 h4         1 A1C       0.033100
     24 H6           5.1520    74.0130   138.6850 h4         1 A1C       0.033100
     25 H7          14.5010    70.8330   144.3270 h4         1 A1C       0.164000
     26 H8           9.8940    72.5610   142.8920 hn         1 A1C       0.334500
@<TRIPOS>BOND
     1     1    12 2   
     2     1    16 1   
     3     1    19 1   
     4     2     3 ar  
     5     2     7 ar  
     6     2    10 1   
     7     3     4 ar  
     8     3    20 1   
     9     4     5 ar  
    10     4    14 ar  
    11     5     6 ar  
    12     5    13 ar  
    13     6     7 ar  
    14     6    21 1   
    15     7    22 1   
    16     8     9 ar  
    17     8    13 ar  
    18     8    23 1   
    19     9    14 ar  
    20     9    24 1   
    21    10    15 1   
    22    10    17 2   
    23    11    15 1   
    24    11    16 2   
    25    11    18 1   
    26    12    18 1   
    27    12    25 1   
    28    15    26 1   
@<TRIPOS>SUBSTRUCTURE
     1 A1C         1 TEMP              0 ****  ****    0 ROOT
