@<TRIPOS>MOLECULE
A1C
   26    27     1     0     0
SMALL
abcg2


@<TRIPOS>ATOM
      1 C10        -31.4580    15.3700     3.6550 cc         1 A1C      -0.096300
      2 C01        -34.5340    17.1680    -1.2530 ca         1 A1C      -0.047000
      3 C02        -33.4410    16.9210    -0.4290 ca         1 A1C      -0.215600
      4 C03        -33.6810    16.4040     0.8740 ca         1 A1C       0.355000
      5 C04        -32.7750    15.4250     2.9450 c3         1 A1C       0.300100
      6 C05        -35.0080    16.1330     1.2550 ca         1 A1C      -0.245000
      7 C06        -36.0660    16.3910     0.4020 ca         1 A1C      -0.086000
      8 C07        -35.8420    16.9170    -0.8640 ca         1 A1C      -0.210000
      9 C09        -30.7350    14.2340     3.8560 cd         1 A1C      -0.231000
     10 C11        -30.7990    16.5190     4.1890 cc         1 A1C      -0.095000
     11 C12        -29.6120    16.2210     4.7790 cd         1 A1C      -0.250000
     12 N01        -32.6460    16.1940     1.7350 nu         1 A1C      -0.986200
     13 O01        -31.0660    16.8690    -0.2530 o          1 A1C      -0.724000
     14 O02        -31.9650    17.7100    -2.1000 o          1 A1C      -0.724000
     15 S01        -29.2720    14.5420     4.6940 ss         1 A1C       0.139000
     16 H1         -34.3420    17.5630    -2.2420 ha         1 A1C       0.123000
     17 H2         -33.5150    15.8860     3.6080 h1         1 A1C       0.022700
     18 H3         -33.1320    14.4030     2.7540 h1         1 A1C       0.022700
     19 H4         -35.2170    15.7200     2.2330 ha         1 A1C       0.083000
     20 H5         -37.0750    16.1740     0.7320 ha         1 A1C       0.075000
     21 H6         -36.6660    17.1200    -1.5350 ha         1 A1C       0.085000
     22 H7         -30.9910    13.2290     3.5520 h4         1 A1C       0.144000
     23 H8         -31.2030    17.5210     4.1360 ha         1 A1C       0.144000
     24 H9         -28.9230    16.8960     5.2640 h4         1 A1C       0.140000
     25 H10        -31.7400    16.2630     1.2730 hn         1 A1C       0.554000
     26 C08        -32.0460    17.1940    -0.9730 c          1 A1C       0.721600
@<TRIPOS>BOND
     1     1     5 1   
     2     1     9 2   
     3     1    10 1   
     4     2     3 ar  
     5     2     8 ar  
     6     2    16 1   
     7     3     4 ar  
     8     3    26 1   
     9     4     6 ar  
    10     4    12 1   
    11     5    12 1   
    12     5    17 1   
    13     5    18 1   
    14     6     7 ar  
    15     6    19 1   
    16     7     8 ar  
    17     7    20 1   
    18     8    21 1   
    19     9    15 1   
    20     9    22 1   
    21    10    11 2   
    22    10    23 1   
    23    11    15 1   
    24    11    24 1   
    25    12    25 1   
    26    13    26 1   
    27    14    26 1   
@<TRIPOS>SUBSTRUCTURE
     1 A1C         1 TEMP              0 ****  ****    0 ROOT
