@<TRIPOS>MOLECULE
A1C
   55    57     1     0     0
SMALL
abcg2


@<TRIPOS>ATOM
      1 C2         -24.1130    28.1520    22.9670 c          1 A1C       0.626000
      2 C4         -23.0640    25.9870    22.3550 c          1 A1C       0.594200
      3 C5         -22.2940    26.0850    23.5720 cc         1 A1C      -0.405200
      4 C6         -22.4550    27.1500    24.3720 cd         1 A1C       0.023600
      5 C1         -23.4660    29.2740    25.0450 c5         1 A1C       0.337700
      6 C7         -24.1910    28.8990    26.3360 c5         1 A1C       0.120300
      7 C3         -23.6350    29.9410    27.3060 c5         1 A1C       0.114300
      8 C8         -22.1810    30.0330    26.8310 c5         1 A1C       0.121300
      9 C9         -21.2240    29.1010    27.5610 c3         1 A1C       0.212600
     10 CB         -22.0720    27.8630    31.3070 c3         1 A1C       0.227600
     11 CC         -22.5030    26.5560    31.9480 c3         1 A1C      -0.077400
     12 CD         -23.3990    25.6660    31.0860 c3         1 A1C      -0.020100
     13 CE         -22.8340    25.2610    29.7520 ca         1 A1C      -0.046300
     14 CF         -21.6330    24.5580    29.6520 ca         1 A1C      -0.096500
     15 CG         -21.1280    24.1800    28.4170 ca         1 A1C      -0.113500
     16 CH         -21.8210    24.4890    27.2510 ca         1 A1C      -0.118000
     17 CI         -23.0240    25.1730    27.3380 ca         1 A1C      -0.113500
     18 CJ         -23.5190    25.5580    28.5790 ca         1 A1C      -0.096500
     19 N1         -23.3280    28.1680    24.1050 n          1 A1C      -0.311000
     20 N3         -23.9240    27.0590    22.1630 ns         1 A1C      -0.474500
     21 O2         -24.9070    29.0250    22.6890 o          1 A1C      -0.554000
     22 O1         -25.5620    28.9060    26.1180 os         1 A1C      -0.422000
     23 O3         -24.3490    31.1310    27.0980 oh         1 A1C      -0.714000
     24 O4         -23.0080    25.0860    21.5420 o          1 A1C      -0.549000
     25 O6         -22.1970    29.7030    25.4370 os         1 A1C      -0.464000
     26 O5         -21.0240    29.6400    28.8460 os         1 A1C      -0.605400
     27 OP1        -19.8280    29.8430    31.0290 o          1 A1C      -0.808000
     28 OP2        -18.9070    28.2140    29.1870 o          1 A1C      -0.808000
     29 OP3        -20.9930    27.6330    30.4180 os         1 A1C      -0.603400
     30 P          -20.0360    28.8640    29.9200 p5         1 A1C       1.394800
     31 H3         -21.5900    25.3080    23.8270 ha         1 A1C       0.222000
     32 HO3        -21.8750    27.2490    25.2780 h4         1 A1C       0.231000
     33 H1         -24.0110    30.0620    24.5210 h2         1 A1C       0.116700
     34 H2         -23.8520    27.9060    26.6750 h1         1 A1C       0.057700
     35 H4         -23.6870    29.6120    28.3520 h1         1 A1C       0.079700
     36 H10        -21.8090    31.0580    26.9370 h1         1 A1C       0.086700
     37 H5'        -20.2870    29.0470    26.9990 h1         1 A1C       0.035700
     38 H5         -21.6360    28.0830    27.6070 h1         1 A1C       0.035700
     39 H11        -21.7740    28.5640    32.0920 h1         1 A1C       0.018200
     40 H12        -22.9190    28.3180    30.7770 h1         1 A1C       0.018200
     41 H14        -21.6140    26.0100    32.2760 hc         1 A1C       0.036700
     42 H13        -23.0590    26.7980    32.8570 hc         1 A1C       0.036700
     43 H16        -23.6420    24.7680    31.6620 hc         1 A1C       0.027700
     44 H15        -24.3490    26.1820    30.9230 hc         1 A1C       0.027700
     45 H17        -21.0810    24.3090    30.5510 ha         1 A1C       0.103500
     46 H18        -20.1910    23.6410    28.3620 ha         1 A1C       0.103500
     47 H19        -21.4290    24.1950    26.2860 ha         1 A1C       0.102000
     48 H20        -23.5840    25.4060    26.4400 ha         1 A1C       0.103500
     49 H21        -24.4600    26.0930    28.6350 ha         1 A1C       0.103500
     50 H22        -27.3610    28.4180    26.9030 h1         1 A1C       0.030367
     51 H9         -26.0170    27.4520    27.5350 h1         1 A1C       0.030367
     52 H8         -26.2440    29.1260    28.0790 h1         1 A1C       0.030367
     53 H6         -24.4940    27.0400    21.3260 hn         1 A1C       0.332500
     54 H7         -23.9800    31.8130    27.6690 ho         1 A1C       0.510000
     55 CM2        -26.3190    28.4560    27.2170 c3         1 A1C       0.148900
@<TRIPOS>BOND
     1     1    19 1   
     2     1    20 1   
     3     1    21 2   
     4     2     3 1   
     5     2    20 1   
     6     2    24 2   
     7     3     4 2   
     8     3    31 1   
     9     4    19 1   
    10     4    32 1   
    11     5     6 1   
    12     5    19 1   
    13     5    25 1   
    14     5    33 1   
    15     6     7 1   
    16     6    22 1   
    17     6    34 1   
    18     7     8 1   
    19     7    23 1   
    20     7    35 1   
    21     8     9 1   
    22     8    25 1   
    23     8    36 1   
    24     9    26 1   
    25     9    37 1   
    26     9    38 1   
    27    10    11 1   
    28    10    29 1   
    29    10    39 1   
    30    10    40 1   
    31    11    12 1   
    32    11    41 1   
    33    11    42 1   
    34    12    13 1   
    35    12    43 1   
    36    12    44 1   
    37    13    14 ar  
    38    13    18 ar  
    39    14    15 ar  
    40    14    45 1   
    41    15    16 ar  
    42    15    46 1   
    43    16    17 ar  
    44    16    47 1   
    45    17    18 ar  
    46    17    48 1   
    47    18    49 1   
    48    20    53 1   
    49    22    55 1   
    50    23    54 1   
    51    26    30 1   
    52    27    30 1   
    53    28    30 1   
    54    29    30 1   
    55    50    55 1   
    56    51    55 1   
    57    52    55 1   
@<TRIPOS>SUBSTRUCTURE
     1 A1C         1 TEMP              0 ****  ****    0 ROOT
