@<TRIPOS>MOLECULE
A1C
   47    50     1     0     0
SMALL
abcg2


@<TRIPOS>ATOM
      1 C6          28.1410    37.7790    21.2240 cy         1 A1C       0.120000
      2 C7          28.6430    39.1310    21.8200 cy         1 A1C      -0.121000
      3 C8          30.0510    38.4950    21.9430 cy         1 A1C       0.120000
      4 C10         27.3290    41.1150    20.6990 ca         1 A1C      -0.262900
      5 C13         25.7180    43.0310    19.6410 ca         1 A1C       0.378900
      6 C15         27.7580    42.1320    19.8200 ca         1 A1C       0.396500
      7 C20         30.7170    44.7040    17.7720 ca         1 A1C      -0.086500
      8 C21         31.7250    44.0070    17.1300 ca         1 A1C       0.082100
      9 C22         31.8990    42.6450    17.3090 ca         1 A1C      -0.086500
     10 C1          29.8080    33.6590    20.7520 c2         1 A1C      -0.287000
     11 C11         25.9730    41.0880    21.0660 ca         1 A1C       0.023700
     12 C12         25.1740    42.0780    20.5160 ca         1 A1C      -0.173000
     13 C18         29.9900    42.6400    18.7750 ca         1 A1C       0.044800
     14 C19         29.8430    44.0160    18.6030 ca         1 A1C      -0.098000
     15 C2          29.3500    34.8960    20.8190 ce         1 A1C       0.039300
     16 C23         31.0220    41.9560    18.1340 ca         1 A1C      -0.098000
     17 C25         32.3000    44.9670    15.0550 c3         1 A1C       0.502000
     18 C29         25.4320    40.0410    21.9930 c3         1 A1C       0.202900
     19 C9          28.5060    40.3380    20.9590 cc         1 A1C       0.378900
     20 F26         33.3210    45.5890    14.4630 f          1 A1C      -0.108000
     21 F27         32.0180    43.8540    14.3480 f          1 A1C      -0.108000
     22 F28         31.2160    45.7640    14.9610 f          1 A1C      -0.108000
     23 F31         28.0900    35.1790    20.3950 f          1 A1C      -0.190500
     24 N14         26.9970    43.0830    19.2780 nb         1 A1C      -0.674000
     25 N16         29.1000    41.9290    19.6090 na         1 A1C       0.051100
     26 N17         29.5330    40.8330    20.3000 nd         1 A1C      -0.491100
     27 N5          29.4960    37.2390    21.4330 nj         1 A1C      -0.425800
     28 O24         32.6520    44.7060    16.3260 os         1 A1C      -0.398100
     29 O30         24.0350    40.2160    22.1730 oh         1 A1C      -0.660000
     30 O4          31.3090    35.9280    21.6600 o          1 A1C      -0.600100
     31 H1          27.8550    37.8260    20.1740 h1         1 A1C       0.069950
     32 H2          27.3700    37.2720    21.8000 h1         1 A1C       0.069950
     33 H3          28.1970    39.3200    22.7950 hc         1 A1C       0.076700
     34 H4          30.4410    38.4170    22.9580 h1         1 A1C       0.069950
     35 H5          30.8080    38.9210    21.2870 h1         1 A1C       0.069950
     36 H6          25.0700    43.7900    19.2160 h4         1 A1C       0.028100
     37 H7          30.6200    45.7720    17.6370 ha         1 A1C       0.140500
     38 H8          32.7050    42.1300    16.8030 ha         1 A1C       0.140500
     39 H9          30.8120    33.4490    21.0890 ha         1 A1C       0.196500
     40 H10         29.1950    32.8570    20.3660 ha         1 A1C       0.196500
     41 H11         24.1220    42.1200    20.7510 ha         1 A1C       0.148000
     42 H12         29.0570    44.5450    19.1170 ha         1 A1C       0.145500
     43 H13         31.1310    40.8910    18.2780 ha         1 A1C       0.145500
     44 H14         25.6450    39.0510    21.5750 h1         1 A1C       0.037700
     45 H15         25.9580    40.1100    22.9530 h1         1 A1C       0.037700
     46 H16         23.7210    39.5210    22.7630 ho         1 A1C       0.453000
     47 C3          30.1240    36.0660    21.3360 c          1 A1C       0.608300
@<TRIPOS>BOND
     1     1     2 1   
     2     1    27 1   
     3     1    31 1   
     4     1    32 1   
     5     2     3 1   
     6     2    19 1   
     7     2    33 1   
     8     3    27 1   
     9     3    34 1   
    10     3    35 1   
    11     4     6 ar  
    12     4    11 ar  
    13     4    19 1   
    14     5    12 ar  
    15     5    24 ar  
    16     5    36 1   
    17     6    24 ar  
    18     6    25 1   
    19     7     8 ar  
    20     7    14 ar  
    21     7    37 1   
    22     8     9 ar  
    23     8    28 1   
    24     9    16 ar  
    25     9    38 1   
    26    10    15 2   
    27    10    39 1   
    28    10    40 1   
    29    11    12 ar  
    30    11    18 1   
    31    12    41 1   
    32    13    14 ar  
    33    13    16 ar  
    34    13    25 1   
    35    14    42 1   
    36    15    23 1   
    37    15    47 1   
    38    16    43 1   
    39    17    20 1   
    40    17    21 1   
    41    17    22 1   
    42    17    28 1   
    43    18    29 1   
    44    18    44 1   
    45    18    45 1   
    46    19    26 2   
    47    25    26 1   
    48    27    47 1   
    49    29    46 1   
    50    30    47 2   
@<TRIPOS>SUBSTRUCTURE
     1 A1C         1 TEMP              0 ****  ****    0 ROOT
