@<TRIPOS>MOLECULE
A1C
   99   103     1     0     0
SMALL
abcg2


@<TRIPOS>ATOM
      1 C1          26.5450    -8.1020     2.1000 c          1 A1C       0.643100
      2 C3          24.1900    -8.1470     1.3920 c3         1 A1C       0.095700
      3 C4          23.1360    -7.1020     1.7990 c3         1 A1C       0.156300
      4 C5          22.3050    -6.5930     0.6190 c3         1 A1C       0.212800
      5 C7          23.1720    -4.3920    -0.1490 c3         1 A1C       0.209800
      6 C8          23.5950    -9.5400     1.1380 c3         1 A1C      -0.042100
      7 C21         24.2740    -3.9330     0.8050 c3         1 A1C      -0.062700
      8 C28         26.0380   -11.5240    -0.9920 ca         1 A1C      -0.112500
      9 C16         19.1140    -4.9100    -3.5650 ca         1 A1C       0.198100
     10 N2          25.2340    -8.2140     2.3910 ns         1 A1C      -0.503900
     11 C14         20.4150    -6.5990    -2.4410 ca         1 A1C       0.023500
     12 C22         24.1950    -2.4160     0.9390 c3         1 A1C      -0.091600
     13 C15         19.2020    -6.1430    -2.9090 ca         1 A1C      -0.198500
     14 C25         25.2940   -11.3170     1.6670 ca         1 A1C      -0.100000
     15 C13         21.5620    -5.8260    -2.6180 ca         1 A1C      -0.351500
     16 C23         25.6540    -4.3710     0.3360 c3         1 A1C      -0.091600
     17 C27         26.6790   -12.3020    -0.0370 ca         1 A1C      -0.109000
     18 C24         24.6470   -10.5260     0.7190 ca         1 A1C      -0.084300
     19 C26         26.3020   -12.1980     1.2950 ca         1 A1C      -0.112500
     20 C17         20.2670    -4.1470    -3.7530 ca         1 A1C      -0.198500
     21 C18         21.4850    -4.6090    -3.2780 ca         1 A1C       0.023500
     22 C29         25.0340   -10.6420    -0.6150 ca         1 A1C      -0.100000
     23 C30         28.6990    -8.1520     3.1100 c5         1 A1C       0.199300
     24 C31         29.0470    -6.6740     3.2830 c5         1 A1C      -0.105400
     25 C32         29.1210    -6.4340     4.8060 c5         1 A1C      -0.075400
     26 C33         28.9690    -7.8200     5.4560 c5         1 A1C      -0.071400
     27 C34         29.3050    -8.8320     4.3510 c5         1 A1C      -0.048000
     28 C35         28.7700   -10.2330     4.6450 c6         1 A1C      -0.096400
     29 C36         29.2700   -11.2500     3.6340 c6         1 A1C       0.152600
     30 C38         31.2270   -10.0350     3.1960 c6         1 A1C       0.224600
     31 C39         30.8320    -8.9480     4.1910 c6         1 A1C      -0.102400
     32 C40         32.7150   -10.2340     3.0350 ca         1 A1C      -0.111300
     33 C41         33.1940   -10.9670     1.9330 ca         1 A1C       0.165100
     34 C42         34.5600   -11.1900     1.7770 ca         1 A1C      -0.206000
     35 C43         35.4580   -10.6910     2.7130 ca         1 A1C      -0.065000
     36 C44         35.0050    -9.9660     3.8000 ca         1 A1C      -0.155000
     37 C45         33.6400    -9.7480     3.9490 ca         1 A1C      -0.063000
     38 C47         17.7390    -3.3210    -4.6680 c3         1 A1C       0.145900
     39 C49         32.6860   -12.1400    -0.0720 c3         1 A1C       0.149900
     40 N6          23.1020    -5.8450    -0.3510 n3         1 A1C      -0.736500
     41 O10         27.0070    -7.8120     1.0140 o          1 A1C      -0.534000
     42 O11         27.2820    -8.3420     3.1890 os         1 A1C      -0.469100
     43 O19         24.1710    -5.6730    -2.6110 o          1 A1C      -0.535500
     44 O20         23.0870    -7.8190    -1.8950 o          1 A1C      -0.535500
     45 O37         30.6810   -11.2840     3.5840 os         1 A1C      -0.443000
     46 O48         32.2690   -11.4120     1.0640 os         1 A1C      -0.334100
     47 O9          22.2010    -7.5900     2.7340 oh         1 A1C      -0.667000
     48 S12         23.0930    -6.3640    -1.9230 sy         1 A1C       1.170600
     49 H1          24.6600    -7.7930     0.4740 h1         1 A1C       0.104700
     50 H2          23.6860    -6.2530     2.2200 h1         1 A1C       0.050700
     51 H3          21.5180    -5.9400     1.0080 h1         1 A1C       0.062700
     52 H4          21.7980    -7.4340     0.1440 h1         1 A1C       0.062700
     53 H5          23.3420    -3.8970    -1.1070 h1         1 A1C       0.046200
     54 H6          22.1990    -4.0420     0.2120 h1         1 A1C       0.046200
     55 H7          22.8250    -9.4600     0.3690 hc         1 A1C       0.060200
     56 H8          23.1020    -9.8920     2.0470 hc         1 A1C       0.060200
     57 H9          24.0880    -4.3580     1.7950 hc         1 A1C       0.045700
     58 H10         26.3210   -11.6020    -2.0340 ha         1 A1C       0.109000
     59 H11         24.9910    -8.5530     3.3100 hn         1 A1C       0.311500
     60 H12         20.4600    -7.5600    -1.9470 ha         1 A1C       0.134000
     61 H13         24.9390    -2.0500     1.6460 hc         1 A1C       0.040200
     62 H14         24.3810    -1.9280    -0.0210 hc         1 A1C       0.040200
     63 H15         23.2140    -2.0940     1.2940 hc         1 A1C       0.040200
     64 H16         18.3090    -6.7410    -2.7780 ha         1 A1C       0.128500
     65 H17         25.0020   -11.2490     2.7080 ha         1 A1C       0.118000
     66 H18         26.4220    -4.0310     1.0330 hc         1 A1C       0.040200
     67 H19         25.7370    -5.4540     0.2570 hc         1 A1C       0.040200
     68 H20         25.8830    -3.9450    -0.6440 hc         1 A1C       0.040200
     69 H21         27.4630   -12.9890    -0.3300 ha         1 A1C       0.109000
     70 H22         26.7910   -12.8040     2.0470 ha         1 A1C       0.109000
     71 H23         20.2400    -3.1970    -4.2670 ha         1 A1C       0.128500
     72 H24         22.3700    -4.0070    -3.4390 ha         1 A1C       0.134000
     73 H25         24.5440   -10.0330    -1.3650 ha         1 A1C       0.118000
     74 H26         29.0640    -8.5620     2.1670 h1         1 A1C       0.080700
     75 H27         30.0080    -6.4740     2.8080 hc         1 A1C       0.058200
     76 H28         28.3250    -6.0270     2.7840 hc         1 A1C       0.058200
     77 H29         30.0740    -5.9770     5.0750 hc         1 A1C       0.041200
     78 H30         28.3430    -5.7510     5.1460 hc         1 A1C       0.041200
     79 H31         27.9420    -7.9740     5.7960 hc         1 A1C       0.046700
     80 H32         29.6110    -7.9500     6.3300 hc         1 A1C       0.046700
     81 H33         27.6800   -10.2480     4.6710 hc         1 A1C       0.053200
     82 H34         29.1080   -10.5300     5.6440 hc         1 A1C       0.053200
     83 H35         28.8580   -11.0290     2.6380 h1         1 A1C       0.048200
     84 H36         28.9390   -12.2550     3.9020 h1         1 A1C       0.048200
     85 H37         30.8190    -9.7580     2.2120 h1         1 A1C       0.050700
     86 H38         31.2420    -9.1850     5.1770 hc         1 A1C       0.053700
     87 H39         31.2800    -7.9980     3.8890 hc         1 A1C       0.053700
     88 H40         34.9410   -11.7480     0.9330 ha         1 A1C       0.116000
     89 H41         36.5160   -10.8750     2.5790 ha         1 A1C       0.110000
     90 H42         35.7000    -9.5730     4.5300 ha         1 A1C       0.114000
     91 H43         33.2990    -9.1780     4.8030 ha         1 A1C       0.112000
     92 H44         16.6830    -3.2390    -4.9100 h1         1 A1C       0.046700
     93 H45         18.0280    -2.4680    -4.0500 h1         1 A1C       0.046700
     94 H46         18.3170    -3.3020    -5.5950 h1         1 A1C       0.046700
     95 H47         31.7840   -12.3910    -0.6250 h1         1 A1C       0.040367
     96 H48         33.3430   -11.5520    -0.7180 h1         1 A1C       0.040367
     97 H49         33.1980   -13.0660     0.2020 h1         1 A1C       0.040367
     98 H50         22.6210    -7.6650     3.5950 ho         1 A1C       0.448000
     99 O46         17.8960    -4.5480    -3.9780 os         1 A1C      -0.334100
@<TRIPOS>BOND
     1     1    10 1   
     2     1    41 2   
     3     1    42 1   
     4     2     3 1   
     5     2     6 1   
     6     2    10 1   
     7     2    49 1   
     8     3     4 1   
     9     3    47 1   
    10     3    50 1   
    11     4    40 1   
    12     4    51 1   
    13     4    52 1   
    14     5     7 1   
    15     5    40 1   
    16     5    53 1   
    17     5    54 1   
    18     6    18 1   
    19     6    55 1   
    20     6    56 1   
    21     7    12 1   
    22     7    16 1   
    23     7    57 1   
    24     8    17 ar  
    25     8    22 ar  
    26     8    58 1   
    27     9    13 ar  
    28     9    20 ar  
    29     9    99 1   
    30    10    59 1   
    31    11    13 ar  
    32    11    15 ar  
    33    11    60 1   
    34    12    61 1   
    35    12    62 1   
    36    12    63 1   
    37    13    64 1   
    38    14    18 ar  
    39    14    19 ar  
    40    14    65 1   
    41    15    21 ar  
    42    15    48 1   
    43    16    66 1   
    44    16    67 1   
    45    16    68 1   
    46    17    19 ar  
    47    17    69 1   
    48    18    22 ar  
    49    19    70 1   
    50    20    21 ar  
    51    20    71 1   
    52    21    72 1   
    53    22    73 1   
    54    23    24 1   
    55    23    27 1   
    56    23    42 1   
    57    23    74 1   
    58    24    25 1   
    59    24    75 1   
    60    24    76 1   
    61    25    26 1   
    62    25    77 1   
    63    25    78 1   
    64    26    27 1   
    65    26    79 1   
    66    26    80 1   
    67    27    28 1   
    68    27    31 1   
    69    28    29 1   
    70    28    81 1   
    71    28    82 1   
    72    29    45 1   
    73    29    83 1   
    74    29    84 1   
    75    30    31 1   
    76    30    32 1   
    77    30    45 1   
    78    30    85 1   
    79    31    86 1   
    80    31    87 1   
    81    32    33 ar  
    82    32    37 ar  
    83    33    34 ar  
    84    33    46 1   
    85    34    35 ar  
    86    34    88 1   
    87    35    36 ar  
    88    35    89 1   
    89    36    37 ar  
    90    36    90 1   
    91    37    91 1   
    92    38    92 1   
    93    38    93 1   
    94    38    94 1   
    95    38    99 1   
    96    39    46 1   
    97    39    95 1   
    98    39    96 1   
    99    39    97 1   
   100    40    48 1   
   101    43    48 2   
   102    44    48 2   
   103    47    98 1   
@<TRIPOS>SUBSTRUCTURE
     1 A1C         1 TEMP              0 ****  ****    0 ROOT
