@<TRIPOS>MOLECULE
A1C
   57    60     1     0     0
SMALL
abcg2


@<TRIPOS>ATOM
      1 C1          -4.5790     2.8350    -6.3920 c          1 A1C       0.606100
      2 C2          -5.6120     3.3440    -7.3680 c3         1 A1C      -0.181100
      3 C4          -3.1290     1.9700    -3.8330 ca         1 A1C      -0.102500
      4 C5          -2.5080     1.3100    -2.7870 ca         1 A1C      -0.149000
      5 C6          -4.9950     0.4850    -3.6330 ca         1 A1C      -0.102500
      6 C7          -4.3790    -0.1720    -2.5760 ca         1 A1C      -0.149000
      7 C8          -3.1190     0.2320    -2.1480 ca         1 A1C       0.120100
      8 C9          -2.9450    -1.4780    -0.4820 c5         1 A1C       0.180300
      9 C12         -0.7360    -3.7520     1.6280 ca         1 A1C      -0.066300
     10 C13          0.5760    -3.3770     1.3400 ca         1 A1C      -0.100000
     11 C14          1.6150    -3.8410     2.1280 ca         1 A1C       0.121000
     12 C15          1.3900    -4.6750     3.2130 ca         1 A1C      -0.101000
     13 C16          0.0850    -5.0460     3.4990 ca         1 A1C      -0.101000
     14 C17         -0.9660    -4.5910     2.7140 ca         1 A1C      -0.106000
     15 C19         -1.7820    -3.6310    -0.7080 c5         1 A1C      -0.072700
     16 C20         -2.1670    -5.0590    -1.0440 c5         1 A1C       0.111000
     17 CL1          3.2410    -3.3700     1.7460 cl         1 A1C      -0.203000
     18 O1          -3.3860     3.0110    -6.5700 o          1 A1C      -0.586100
     19 N1          -5.0910     2.1860    -5.3160 ns         1 A1C      -0.150000
     20 C3          -4.3860     1.5560    -4.2770 ca         1 A1C      -0.061000
     21 C10         -2.0580    -1.7490     0.7410 c5         1 A1C      -0.073400
     22 C11         -1.8800    -3.2690     0.7810 c5         1 A1C      -0.021400
     23 C18         -2.8710    -2.7590    -1.3410 c5         1 A1C      -0.116700
     24 N2          -3.6170    -4.9990    -1.1570 n          1 A1C      -0.422800
     25 C21         -4.4460    -6.0580    -1.1990 c          1 A1C       0.603100
     26 C22         -3.7940    -7.4230    -1.1010 c3         1 A1C      -0.152400
     27 C23         -4.7690    -8.5720    -1.2800 c3         1 A1C      -0.077100
     28 O3          -5.6580    -5.9160    -1.3080 o          1 A1C      -0.606100
     29 C24         -4.1250    -3.6400    -1.2650 c5         1 A1C       0.106000
     30 H1          -5.3790     2.9710    -8.3650 hc         1 A1C       0.062367
     31 H2          -6.6330     3.0600    -7.1220 hc         1 A1C       0.062367
     32 H3          -5.5590     4.4320    -7.4090 hc         1 A1C       0.062367
     33 H4          -2.6270     2.8080    -4.2890 ha         1 A1C       0.127000
     34 H5          -1.5320     1.6400    -2.4540 ha         1 A1C       0.123500
     35 H6          -5.9720     0.1480    -3.9580 ha         1 A1C       0.127000
     36 H7          -4.9060    -0.9960    -2.1160 ha         1 A1C       0.123500
     37 H8          -3.9750    -1.2770    -0.1670 h1         1 A1C       0.053700
     38 H9           0.7910    -2.7210     0.5040 ha         1 A1C       0.131000
     39 H10          2.2120    -5.0270     3.8210 ha         1 A1C       0.131000
     40 H11         -0.1110    -5.6960     4.3410 ha         1 A1C       0.120000
     41 H12         -1.9790    -4.8910     2.9500 ha         1 A1C       0.117000
     42 H13         -0.7890    -3.3870    -1.0920 hc         1 A1C       0.076700
     43 H14         -1.8480    -5.7590    -0.2690 h1         1 A1C       0.050200
     44 H15         -1.7080    -5.3780    -1.9850 h1         1 A1C       0.050200
     45 H16         -6.0880     2.0370    -5.3120 hn         1 A1C       0.149000
     46 H17         -1.0890    -1.2680     0.5850 hc         1 A1C       0.066700
     47 H18         -2.4780    -1.3500     1.6640 hc         1 A1C       0.066700
     48 H19         -2.7960    -3.7160     1.1850 hc         1 A1C       0.063700
     49 H20         -2.6470    -2.5290    -2.3850 hc         1 A1C       0.084700
     50 H21         -2.9930    -7.4930    -1.8430 hc         1 A1C       0.055200
     51 H22         -3.2950    -7.5010    -0.1300 hc         1 A1C       0.055200
     52 H23         -4.2400    -9.5220    -1.2030 hc         1 A1C       0.041700
     53 H24         -5.5490    -8.5660    -0.5200 hc         1 A1C       0.041700
     54 H25         -5.2530    -8.5420    -2.2560 hc         1 A1C       0.041700
     55 H26         -4.7460    -3.3940    -0.3980 h1         1 A1C       0.055200
     56 H27         -4.7550    -3.5260    -2.1490 h1         1 A1C       0.055200
     57 O2          -2.4230    -0.3360    -1.1400 os         1 A1C      -0.345100
@<TRIPOS>BOND
     1     1     2 1   
     2     1    18 2   
     3     1    19 1   
     4     2    30 1   
     5     2    31 1   
     6     2    32 1   
     7     3     4 ar  
     8     3    20 ar  
     9     3    33 1   
    10     4     7 ar  
    11     4    34 1   
    12     5     6 ar  
    13     5    20 ar  
    14     5    35 1   
    15     6     7 ar  
    16     6    36 1   
    17     7    57 1   
    18     8    21 1   
    19     8    23 1   
    20     8    37 1   
    21     8    57 1   
    22     9    10 ar  
    23     9    14 ar  
    24     9    22 1   
    25    10    11 ar  
    26    10    38 1   
    27    11    12 ar  
    28    11    17 1   
    29    12    13 ar  
    30    12    39 1   
    31    13    14 ar  
    32    13    40 1   
    33    14    41 1   
    34    15    16 1   
    35    15    22 1   
    36    15    23 1   
    37    15    42 1   
    38    16    24 1   
    39    16    43 1   
    40    16    44 1   
    41    19    20 1   
    42    19    45 1   
    43    21    22 1   
    44    21    46 1   
    45    21    47 1   
    46    22    48 1   
    47    23    29 1   
    48    23    49 1   
    49    24    25 1   
    50    24    29 1   
    51    25    26 1   
    52    25    28 2   
    53    26    27 1   
    54    26    50 1   
    55    26    51 1   
    56    27    52 1   
    57    27    53 1   
    58    27    54 1   
    59    29    55 1   
    60    29    56 1   
@<TRIPOS>SUBSTRUCTURE
     1 A1C         1 TEMP              0 ****  ****    0 ROOT
