@<TRIPOS>MOLECULE
A1C
   66    72     1     0     0
SMALL
abcg2


@<TRIPOS>ATOM
      1 N1         -13.6170   -11.1600     5.8030 ns         1 A1C      -0.485500
      2 N3         -23.7730   -13.5640     6.7920 n3         1 A1C      -0.743600
      3 C4         -12.6960   -12.6650     7.4990 c6         1 A1C      -0.165400
      4 C5         -12.6480   -12.0990     6.1070 c          1 A1C       0.578000
      5 C6         -17.0680   -11.9440     8.2110 c5         1 A1C       0.144300
      6 C7         -18.2140   -11.3090     8.9320 ca         1 A1C      -0.087300
      7 C8         -17.7630   -10.1960     9.6180 ca         1 A1C      -0.150600
      8 C10        -19.9590    -9.7950    10.4270 ca         1 A1C      -0.089000
      9 C13        -22.4570   -12.1830     8.9270 ca         1 A1C      -0.163000
     10 C15        -24.4290   -13.5080     8.0690 c3         1 A1C       0.222100
     11 C17        -23.8030   -12.9110     4.5010 c5         1 A1C      -0.084400
     12 C20        -24.5290   -11.9270    10.0430 ca         1 A1C      -0.127800
     13 C21        -23.8310   -11.0410    10.8910 ca         1 A1C       0.374500
     14 C22        -25.8780   -11.9520    10.5020 cc         1 A1C      -0.235200
     15 C24        -24.3610    -9.5570    12.7940 cy         1 A1C       0.026300
     16 C26        -23.2060    -9.8770    13.7480 cy         1 A1C       0.137100
     17 C28        -16.3160   -10.0430     9.3820 c          1 A1C       0.592600
     18 C1         -14.6280   -10.6930     6.6110 c          1 A1C       0.550000
     19 C2         -14.6470   -11.2330     8.0360 c6         1 A1C       0.041700
     20 C3         -14.0950   -12.6510     8.0910 c6         1 A1C      -0.082400
     21 O2         -11.8220   -12.4070     5.2820 o          1 A1C      -0.511000
     22 N2         -15.9540   -11.0990     8.6000 n          1 A1C      -0.409800
     23 C9         -18.6290    -9.4220    10.3740 ca         1 A1C      -0.045000
     24 C11        -20.4340   -10.9230     9.7390 cp         1 A1C      -0.111500
     25 C12        -21.8670   -11.2850     9.8330 cp         1 A1C       0.415500
     26 C14        -23.7970   -12.5220     9.0140 ca         1 A1C      -0.000300
     27 C16        -23.9970   -12.4000     5.9410 c5         1 A1C       0.167300
     28 C18        -23.4360   -14.3910     4.6620 c5         1 A1C      -0.084400
     29 C19        -24.0730   -14.7390     5.9960 c5         1 A1C       0.167300
     30 N4         -22.5580   -10.7090    10.8120 nb         1 A1C      -0.692000
     31 C23        -25.9390   -11.1070    11.5720 cd         1 A1C      -0.142100
     32 N5         -24.7040   -10.5630    11.8240 na         1 A1C      -0.190400
     33 C25        -25.1950    -9.4810    14.0760 cy         1 A1C       0.137100
     34 O3         -24.0240    -9.5880    14.8880 oq         1 A1C      -0.443000
     35 C27        -19.5400   -11.6890     8.9860 ca         1 A1C      -0.086000
     36 O4         -15.5760    -9.1690     9.7940 o          1 A1C      -0.532000
     37 H1         -13.5880   -10.7750     4.8650 hn         1 A1C       0.330500
     38 H3         -12.2820   -13.6720     7.4710 hc         1 A1C       0.083700
     39 H4         -12.0200   -12.0630     8.1170 hc         1 A1C       0.083700
     40 H5         -17.2180   -11.9380     7.1270 h1         1 A1C       0.063700
     41 H6         -16.9160   -12.9820     8.5180 h1         1 A1C       0.063700
     42 H7         -20.6550    -9.2080    11.0110 ha         1 A1C       0.137000
     43 H8         -21.8760   -12.6140     8.1230 ha         1 A1C       0.141000
     44 H9         -25.5050   -13.2810     7.9760 h1         1 A1C       0.044200
     45 H10        -24.3710   -14.4980     8.5360 h1         1 A1C       0.044200
     46 H11        -23.0470   -12.3480     3.9540 hc         1 A1C       0.048700
     47 H12        -24.7370   -12.8160     3.9450 hc         1 A1C       0.048700
     48 H13        -26.7020   -12.5220    10.1040 ha         1 A1C       0.208000
     49 H14        -24.2510    -8.5900    12.3000 h1         1 A1C       0.083700
     50 H15        -22.8820   -10.9210    13.7170 h1         1 A1C       0.065700
     51 H16        -22.3330    -9.2260    13.6800 h1         1 A1C       0.065700
     52 H17        -13.9760   -10.5850     8.6130 h1         1 A1C       0.108700
     53 H18        -14.7380   -13.3420     7.5410 hc         1 A1C       0.064200
     54 H19        -14.0650   -12.9890     9.1270 hc         1 A1C       0.064200
     55 H20        -18.2780    -8.5490    10.9090 ha         1 A1C       0.136000
     56 H21        -23.3030   -11.5970     6.1990 h1         1 A1C       0.037950
     57 H22        -25.0120   -11.9980     6.0710 h1         1 A1C       0.037950
     58 H23        -22.3540   -14.5180     4.7310 hc         1 A1C       0.048700
     59 H24        -23.7960   -15.0130     3.8420 hc         1 A1C       0.048700
     60 H25        -25.1580   -14.8990     5.8690 h1         1 A1C       0.037950
     61 H26        -23.6610   -15.6390     6.4590 h1         1 A1C       0.037950
     62 H27        -26.7900   -10.8510    12.1830 h4         1 A1C       0.216000
     63 H28        -25.7360    -8.5460    14.2320 h1         1 A1C       0.065700
     64 H29        -25.8840   -10.3180    14.2280 h1         1 A1C       0.065700
     65 H30        -19.8640   -12.5780     8.4610 ha         1 A1C       0.124000
     66 O1         -15.4320    -9.8910     6.2040 o          1 A1C      -0.499000
@<TRIPOS>BOND
     1     1     4 1   
     2     1    18 1   
     3     1    37 1   
     4     2    10 1   
     5     2    27 1   
     6     2    29 1   
     7     3     4 1   
     8     3    20 1   
     9     3    38 1   
    10     3    39 1   
    11     4    21 2   
    12     5     6 1   
    13     5    22 1   
    14     5    40 1   
    15     5    41 1   
    16     6     7 ar  
    17     6    35 ar  
    18     7    17 1   
    19     7    23 ar  
    20     8    23 ar  
    21     8    24 ar  
    22     8    42 1   
    23     9    25 ar  
    24     9    26 ar  
    25     9    43 1   
    26    10    26 1   
    27    10    44 1   
    28    10    45 1   
    29    11    27 1   
    30    11    28 1   
    31    11    46 1   
    32    11    47 1   
    33    12    13 ar  
    34    12    14 1   
    35    12    26 ar  
    36    13    30 ar  
    37    13    32 1   
    38    14    31 2   
    39    14    48 1   
    40    15    16 1   
    41    15    32 1   
    42    15    33 1   
    43    15    49 1   
    44    16    34 1   
    45    16    50 1   
    46    16    51 1   
    47    17    22 1   
    48    17    36 2   
    49    18    19 1   
    50    18    66 2   
    51    19    20 1   
    52    19    22 1   
    53    19    52 1   
    54    20    53 1   
    55    20    54 1   
    56    23    55 1   
    57    24    25 1   
    58    24    35 ar  
    59    25    30 ar  
    60    27    56 1   
    61    27    57 1   
    62    28    29 1   
    63    28    58 1   
    64    28    59 1   
    65    29    60 1   
    66    29    61 1   
    67    31    32 1   
    68    31    62 1   
    69    33    34 1   
    70    33    63 1   
    71    33    64 1   
    72    35    65 1   
@<TRIPOS>SUBSTRUCTURE
     1 A1C         1 TEMP              0 ****  ****    0 ROOT
