@<TRIPOS>MOLECULE
A1C
   27    26     1     0     0
SMALL
abcg2


@<TRIPOS>ATOM
      1 N           -6.2750    -0.1130     3.0990 n7         1 A1C      -0.611200
      2 CA          -7.7080    -0.4180     2.9990 c3         1 A1C      -0.011500
      3 C           -8.4800     0.9170     2.8250 c          1 A1C       0.725000
      4 O           -8.9850     1.4240     3.8460 o          1 A1C      -0.723500
      5 CB          -8.2400    -1.3080     4.1210 c3         1 A1C      -0.080400
      6 CG          -9.6660    -1.7880     3.8730 c3         1 A1C      -0.101400
      7 CD         -10.1430    -2.8240     4.8870 c3         1 A1C       0.230800
      8 NE         -10.1430    -2.3850     6.2640 nu         1 A1C      -0.907400
      9 CZ         -11.0940    -1.5310     6.7500 c2         1 A1C       0.797100
     10 NH1        -12.1390    -1.2430     6.0620 n2         1 A1C      -0.882100
     11 NH2        -10.7910    -1.0300     8.0020 nv         1 A1C      -1.063200
     12 NM          -5.8530     0.5590     4.2650 n8         1 A1C      -0.794000
     13 H           -5.7530    -0.9780     3.0540 hn         1 A1C       0.378000
     14 HA          -7.8010    -0.9790     2.0610 h1         1 A1C       0.045700
     15 HB3         -7.5810    -2.1800     4.2150 hc         1 A1C       0.013700
     16 H1          -8.2000    -0.7780     5.0770 hc         1 A1C       0.013700
     17 HG3        -10.3490    -0.9370     3.8700 hc         1 A1C       0.065700
     18 H2          -9.7290    -2.2430     2.8780 hc         1 A1C       0.065700
     19 HD3        -11.1500    -3.1550     4.6330 h1         1 A1C       0.037700
     20 H3          -9.5000    -3.7060     4.8330 h1         1 A1C       0.037700
     21 HE          -9.2370    -2.3340     6.7020 hn         1 A1C       0.466000
     22 HH12       -12.7730    -0.6670     6.6030 hn         1 A1C       0.364400
     23 HH21       -11.5700    -0.6320     8.5010 hn         1 A1C       0.439000
     24 HH22       -10.2370    -1.6260     8.5980 hn         1 A1C       0.439000
     25 HM2         -6.0990     1.5350     4.1710 hn         1 A1C       0.390000
     26 HM1         -6.3430     0.2240     5.0910 hn         1 A1C       0.390000
     27 OXT         -8.5020     1.3890     1.6710 o          1 A1C      -0.723500
@<TRIPOS>BOND
     1     1     2 1   
     2     1    12 1   
     3     1    13 1   
     4     2     3 1   
     5     2     5 1   
     6     2    14 1   
     7     3     4 1   
     8     3    27 1   
     9     5     6 1   
    10     5    15 1   
    11     5    16 1   
    12     6     7 1   
    13     6    17 1   
    14     6    18 1   
    15     7     8 1   
    16     7    19 1   
    17     7    20 1   
    18     8     9 1   
    19     8    21 1   
    20     9    10 2   
    21     9    11 1   
    22    10    22 1   
    23    11    23 1   
    24    11    24 1   
    25    12    25 1   
    26    12    26 1   
@<TRIPOS>SUBSTRUCTURE
     1 A1C         1 TEMP              0 ****  ****    0 ROOT
