@<TRIPOS>MOLECULE
A1C
   28    28     1     0     0
SMALL
abcg2


@<TRIPOS>ATOM
      1 C15         -4.7710   -22.9120     9.3090 c3         1 A1C      -0.092100
      2 C17         -5.6290   -20.0390     7.1970 c6         1 A1C       0.365300
      3 C11         -3.1510   -19.8750     7.5640 c6         1 A1C       0.184300
      4 C12         -3.2670   -20.9870     8.6100 c6         1 A1C       0.116300
      5 C14         -4.4960   -21.8380     8.2770 c6         1 A1C       0.141300
      6 C37         -4.4430   -19.0880     7.4010 c6         1 A1C       0.162300
      7 C39         -5.3340   -17.1740     8.4920 c          1 A1C       0.596100
      8 C40         -5.4390   -16.5080     9.8320 c3         1 A1C      -0.154100
      9 O10         -2.1150   -18.9660     7.8180 oh         1 A1C      -0.630000
     10 O13         -3.3070   -20.4330     9.8990 oh         1 A1C      -0.678000
     11 O16         -5.6640   -21.0320     8.1780 os         1 A1C      -0.466000
     12 O38         -4.6610   -18.3200     8.5820 os         1 A1C      -0.408100
     13 O41         -5.7940   -16.7450     7.4650 o          1 A1C      -0.497000
     14 H151        -3.8980   -23.5560     9.4210 hc         1 A1C       0.046033
     15 H153        -5.0100   -22.4880    10.2860 hc         1 A1C       0.046033
     16 H152        -5.6070   -23.5390     9.0020 hc         1 A1C       0.046033
     17 O1          -5.5110   -20.5490     5.9060 oh         1 A1C      -0.683000
     18 H171        -6.5710   -19.4900     7.3180 h2         1 A1C       0.082700
     19 H111        -2.9960   -20.3870     6.6040 h1         1 A1C       0.048700
     20 H121        -2.3880   -21.6410     8.4930 h1         1 A1C       0.023700
     21 H141        -4.2950   -22.3300     7.3160 h1         1 A1C       0.043700
     22 H371        -4.3590   -18.4250     6.5370 h1         1 A1C       0.093700
     23 H402        -5.9580   -15.5570     9.7440 hc         1 A1C       0.070367
     24 H403        -5.9840   -17.1450    10.5290 hc         1 A1C       0.070367
     25 H401        -4.4500   -16.3380    10.2560 hc         1 A1C       0.070367
     26 H2          -1.2790   -19.4430     7.7900 ho         1 A1C       0.443000
     27 H131        -3.0950   -21.1250    10.5330 ho         1 A1C       0.496000
     28 H1          -6.3040   -21.0540     5.6950 ho         1 A1C       0.460000
@<TRIPOS>BOND
     1     1     5 1   
     2     1    14 1   
     3     1    15 1   
     4     1    16 1   
     5     2     6 1   
     6     2    11 1   
     7     2    17 1   
     8     2    18 1   
     9     3     4 1   
    10     3     6 1   
    11     3     9 1   
    12     3    19 1   
    13     4     5 1   
    14     4    10 1   
    15     4    20 1   
    16     5    11 1   
    17     5    21 1   
    18     6    12 1   
    19     6    22 1   
    20     7     8 1   
    21     7    12 1   
    22     7    13 2   
    23     8    23 1   
    24     8    24 1   
    25     8    25 1   
    26     9    26 1   
    27    10    27 1   
    28    17    28 1   
@<TRIPOS>SUBSTRUCTURE
     1 A1C         1 TEMP              0 ****  ****    0 ROOT
