@<TRIPOS>MOLECULE
A1C
   23    23     1     0     0
SMALL
abcg2


@<TRIPOS>ATOM
      1 N1           8.0910   -26.0690     0.6000 nt         1 A1C      -0.618000
      2 C4           8.6500   -23.7380     0.3740 c3         1 A1C       0.096300
      3 C6           9.8690   -23.6140     1.3080 c3         1 A1C      -0.069100
      4 C7          10.7970   -22.5250     0.8510 ca         1 A1C      -0.097300
      5 C8          11.6910   -22.7540    -0.1950 ca         1 A1C      -0.106500
      6 C10         12.4680   -20.4800    -0.0750 ca         1 A1C      -0.107000
      7 C11         11.5820   -20.2400     0.9660 ca         1 A1C      -0.108500
      8 C12         10.7500   -21.2560     1.4220 ca         1 A1C      -0.106500
      9 C2           7.7170   -24.8200     0.9130 c          1 A1C       0.606100
     10 C9          12.5200   -21.7420    -0.6550 ca         1 A1C      -0.108500
     11 O3           6.7440   -24.5580     1.5990 o          1 A1C      -0.568100
     12 O5           7.9140   -22.5520     0.2980 oh         1 A1C      -0.625000
     13 H1B          7.5830   -26.8600     0.9600 hn         1 A1C       0.313500
     14 H1A          8.8810   -26.2600     0.0070 hn         1 A1C       0.313500
     15 H4           9.0140   -24.0470    -0.6160 h1         1 A1C       0.032700
     16 H6A          9.5210   -23.4110     2.3240 hc         1 A1C       0.063200
     17 H6B         10.3960   -24.5700     1.3290 hc         1 A1C       0.063200
     18 H8          11.7410   -23.7360    -0.6510 ha         1 A1C       0.114500
     19 H10         13.1170   -19.6900    -0.4300 ha         1 A1C       0.115000
     20 H11         11.5360   -19.2610     1.4260 ha         1 A1C       0.115000
     21 H12         10.0650   -21.0640     2.2390 ha         1 A1C       0.114500
     22 H9          13.2110   -21.9380    -1.4650 ha         1 A1C       0.115000
     23 H5           8.4730   -21.8770    -0.1000 ho         1 A1C       0.451000
@<TRIPOS>BOND
     1     1     9 1   
     2     1    13 1   
     3     1    14 1   
     4     2     3 1   
     5     2     9 1   
     6     2    12 1   
     7     2    15 1   
     8     3     4 1   
     9     3    16 1   
    10     3    17 1   
    11     4     5 ar  
    12     4     8 ar  
    13     5    10 ar  
    14     5    18 1   
    15     6     7 ar  
    16     6    10 ar  
    17     6    19 1   
    18     7     8 ar  
    19     7    20 1   
    20     8    21 1   
    21     9    11 2   
    22    10    22 1   
    23    12    23 1   
@<TRIPOS>SUBSTRUCTURE
     1 A1C         1 TEMP              0 ****  ****    0 ROOT
