@<TRIPOS>MOLECULE
A1C
   38    40     1     0     0
SMALL
abcg2


@<TRIPOS>ATOM
      1 C14        -15.8090   -17.6910     5.3610 cc         1 A1C       0.077400
      2 C15        -16.8500   -17.8510     6.2470 cd         1 A1C       0.171300
      3 C17        -16.5420   -19.7660     5.3620 cc         1 A1C       0.426400
      4 C18        -17.4400   -16.8130     7.1280 c3         1 A1C       0.155000
      5 C2         -13.3860   -21.0690     2.8040 c5         1 A1C       0.194300
      6 C20        -16.3630   -15.8370     7.6040 c3         1 A1C       0.193800
      7 C22        -15.1100   -15.4730     5.4700 c2         1 A1C       0.654100
      8 C3         -13.7460   -20.4490     4.1560 c5         1 A1C      -0.136400
      9 C4         -14.6740   -19.2990     3.7850 c5         1 A1C       0.296300
     10 C6         -14.4770   -20.5040     1.8560 c5         1 A1C       0.066300
     11 C7         -15.2790   -21.5560     1.0990 c3         1 A1C       0.262600
     12 N13        -15.6250   -18.9390     4.8020 na         1 A1C      -0.132500
     13 N16        -17.2890   -19.1460     6.2310 nd         1 A1C      -0.704000
     14 N21        -15.7880   -15.0370     6.5410 nu         1 A1C      -0.939400
     15 N23        -15.0410   -16.6430     4.9410 ne         1 A1C      -0.620100
     16 O1         -12.1020   -20.7070     2.3970 oh         1 A1C      -0.846000
     17 O19        -18.4780   -16.1500     6.4360 oh         1 A1C      -0.631000
     18 O5         -15.3810   -19.7530     2.6590 os         1 A1C      -0.478000
     19 O8         -14.4890   -22.4680     0.3950 os         1 A1C      -0.592400
     20 P9         -13.3850   -21.9450    -0.7950 p5         1 A1C       1.295900
     21 H17        -16.6200   -20.8090     5.0970 h5         1 A1C       0.068100
     22 H18        -17.8270   -17.3160     8.0250 h1         1 A1C       0.039700
     23 H2         -13.4880   -22.1620     2.8710 h1         1 A1C       0.040700
     24 H20A       -16.7940   -15.1340     8.3170 h1         1 A1C       0.031700
     25 H20B       -15.5900   -16.3940     8.1410 h1         1 A1C       0.031700
     26 H22        -14.5480   -14.6850     4.9770 h5         1 A1C       0.020800
     27 H4         -14.1000   -18.3960     3.5580 h2         1 A1C       0.085700
     28 H6         -13.9910   -19.8260     1.1450 h1         1 A1C       0.096700
     29 H7A        -15.8650   -22.1240     1.8330 h1         1 A1C      -0.007800
     30 H7B        -15.9980   -21.0470     0.4420 h1         1 A1C      -0.007800
     31 H21        -15.6940   -14.0540     6.7330 hn         1 A1C       0.463000
     32 H1         -12.0430   -21.0120     1.4330 ho         1 A1C       0.627000
     33 H19        -18.8930   -15.5230     7.0400 ho         1 A1C       0.415000
     34 H3A        -14.2710   -21.1720     4.7820 hc         1 A1C       0.038200
     35 O10        -14.0620   -20.7750    -1.4910 o          1 A1C      -0.898167
     36 O11        -13.1870   -23.2060    -1.6130 o          1 A1C      -0.898167
     37 O12        -12.1200   -21.5450     0.0040 o          1 A1C      -0.898167
     38 H3B        -12.8670   -20.1110     4.7050 hc         1 A1C       0.038200
@<TRIPOS>BOND
     1     1     2 2   
     2     1    12 1   
     3     1    15 1   
     4     2     4 1   
     5     2    13 1   
     6     3    12 1   
     7     3    13 2   
     8     3    21 1   
     9     4     6 1   
    10     4    17 1   
    11     4    22 1   
    12     5     8 1   
    13     5    10 1   
    14     5    16 1   
    15     5    23 1   
    16     6    14 1   
    17     6    24 1   
    18     6    25 1   
    19     7    14 1   
    20     7    15 2   
    21     7    26 1   
    22     8     9 1   
    23     8    34 1   
    24     8    38 1   
    25     9    12 1   
    26     9    18 1   
    27     9    27 1   
    28    10    11 1   
    29    10    18 1   
    30    10    28 1   
    31    11    19 1   
    32    11    29 1   
    33    11    30 1   
    34    14    31 1   
    35    16    32 1   
    36    17    33 1   
    37    19    20 1   
    38    20    35 1   
    39    20    36 1   
    40    20    37 1   
@<TRIPOS>SUBSTRUCTURE
     1 A1C         1 TEMP              0 ****  ****    0 ROOT
