@<TRIPOS>MOLECULE
A1C
   18    19     1     0     0
SMALL
abcg2


@<TRIPOS>ATOM
      1 C5          16.8750   -31.3700    33.7200 c5         1 A1C       0.243100
      2 C6          16.3430   -32.2930    34.7760 ca         1 A1C      -0.032300
      3 C7          15.8520   -33.5780    34.6000 ca         1 A1C      -0.104000
      4 C8          15.4110   -34.2830    35.7110 ca         1 A1C      -0.057000
      5 C10         15.9380   -32.4380    37.1720 ca         1 A1C       0.014000
      6 C11         16.3720   -31.7560    36.0480 ca         1 A1C      -0.270500
      7 C9          15.4490   -33.7210    36.9860 ca         1 A1C      -0.124000
      8 N4          16.9880   -30.0650    34.3660 n7         1 A1C      -0.866300
      9 S2          17.1130   -30.1630    36.0200 sy         1 A1C       1.136600
     10 H5A         16.1890   -31.2990    32.8750 h1         1 A1C       0.069200
     11 H5B         17.8370   -31.7300    33.3460 h1         1 A1C       0.069200
     12 H7          15.8130   -34.0220    33.6140 ha         1 A1C       0.122000
     13 H8          15.0260   -35.2870    35.5840 ha         1 A1C       0.119000
     14 H10         15.9730   -31.9890    38.1560 ha         1 A1C       0.133000
     15 H9          15.0930   -34.2890    37.8350 ha         1 A1C       0.122000
     16 H4          17.6500   -29.4200    33.9460 hn         1 A1C       0.488000
     17 O1          18.4920   -30.2420    36.4850 o          1 A1C      -0.530000
     18 O3          16.2870   -29.1400    36.6410 o          1 A1C      -0.530000
@<TRIPOS>BOND
     1     1     2 1   
     2     1     8 1   
     3     1    10 1   
     4     1    11 1   
     5     2     3 ar  
     6     2     6 ar  
     7     3     4 ar  
     8     3    12 1   
     9     4     7 ar  
    10     4    13 1   
    11     5     6 ar  
    12     5     7 ar  
    13     5    14 1   
    14     6     9 1   
    15     7    15 1   
    16     8     9 1   
    17     8    16 1   
    18     9    17 2   
    19     9    18 2   
@<TRIPOS>SUBSTRUCTURE
     1 A1C         1 TEMP              0 ****  ****    0 ROOT
