@<TRIPOS>MOLECULE
A1C
   24    24     1     0     0
SMALL
abcg2


@<TRIPOS>ATOM
      1 C4          18.3930   -30.1810    36.0490 c3         1 A1C      -0.035100
      2 C5          17.3230   -31.2310    36.0200 ca         1 A1C      -0.039300
      3 C6          17.0850   -32.0450    37.1260 ca         1 A1C      -0.106000
      4 C7          16.0830   -32.9990    37.1070 ca         1 A1C      -0.071500
      5 C8          15.2940   -33.1450    35.9660 ca         1 A1C      -0.025000
      6 C1          18.3380   -28.9360    38.9020 c3         1 A1C       0.144100
      7 C11         15.5150   -32.3370    34.8520 ca         1 A1C      -0.071500
      8 C12         16.5230   -31.3900    34.8890 ca         1 A1C      -0.106000
      9 C3          17.8670   -28.8230    36.5230 c3         1 A1C       0.166800
     10 C9          14.2670   -34.1340    35.9370 cg         1 A1C       0.327000
     11 N10         13.4360   -34.9330    35.9170 n1         1 A1C      -0.461000
     12 N2          17.3290   -28.8650    37.8660 n7         1 A1C      -0.864400
     13 H4B         19.2200   -30.5080    36.6840 hc         1 A1C       0.049200
     14 H4A         18.8070   -30.0490    35.0470 hc         1 A1C       0.049200
     15 H6          17.7000   -31.9430    38.0110 ha         1 A1C       0.117000
     16 H7          15.9120   -33.6280    37.9700 ha         1 A1C       0.123000
     17 H1B         17.8660   -28.8370    39.8790 h1         1 A1C       0.028367
     18 H1C         18.8420   -29.9040    38.8870 h1         1 A1C       0.028367
     19 H1A         19.1150   -28.1610    38.8210 h1         1 A1C       0.028367
     20 H11         14.9060   -32.4520    33.9650 ha         1 A1C       0.123000
     21 H12         16.6960   -30.7660    34.0200 ha         1 A1C       0.117000
     22 H3B         18.6830   -28.0910    36.4160 h1         1 A1C       0.031200
     23 H3A         17.0700   -28.5030    35.8480 h1         1 A1C       0.031200
     24 H2          16.7640   -28.0400    38.0150 hn         1 A1C       0.414000
@<TRIPOS>BOND
     1     1     2 1   
     2     1     9 1   
     3     1    13 1   
     4     1    14 1   
     5     2     3 ar  
     6     2     8 ar  
     7     3     4 ar  
     8     3    15 1   
     9     4     5 ar  
    10     4    16 1   
    11     5     7 ar  
    12     5    10 1   
    13     6    12 1   
    14     6    17 1   
    15     6    18 1   
    16     6    19 1   
    17     7     8 ar  
    18     7    20 1   
    19     8    21 1   
    20     9    12 1   
    21     9    22 1   
    22     9    23 1   
    23    10    11 3   
    24    12    24 1   
@<TRIPOS>SUBSTRUCTURE
     1 A1C         1 TEMP              0 ****  ****    0 ROOT
