@<TRIPOS>MOLECULE
A1C
   51    55     1     0     0
SMALL
abcg2


@<TRIPOS>ATOM
      1 C01        176.1960   150.0500   128.4790 c3         1 A1C       0.143900
      2 C03        176.4790   147.7050   128.7310 ca         1 A1C       0.108100
      3 C04        176.4310   147.7610   130.1200 ca         1 A1C       0.273900
      4 C06        176.8240   145.5400   130.3120 ca         1 A1C       0.408000
      5 C08        176.8990   145.3590   128.9380 ca         1 A1C      -0.106000
      6 C09        176.7280   146.4650   128.1220 cp         1 A1C      -0.058000
      7 C10        176.7720   146.3170   126.6530 cp         1 A1C      -0.053000
      8 C11        175.9730   145.3380   126.0610 ca         1 A1C       0.346900
      9 C13        176.6640   145.8590   123.9630 ca         1 A1C       0.338900
     10 C14        177.4840   146.8720   124.4330 ca         1 A1C      -0.119000
     11 C15        177.5550   147.1000   125.8000 ca         1 A1C      -0.085600
     12 C16        178.4610   148.1910   126.2660 c          1 A1C       0.627700
     13 C19        180.1170   148.7820   127.9080 cc         1 A1C       0.500300
     14 C22        181.4400   150.5710   128.6950 cc         1 A1C       0.394700
     15 C24        182.1620   151.8210   128.9540 cx         1 A1C      -0.171000
     16 C25        182.7210   152.0850   130.3150 cx         1 A1C      -0.085400
     17 C26        183.6610   151.7420   129.2050 cx         1 A1C      -0.067400
     18 C27        184.5780   152.7400   128.6140 ca         1 A1C      -0.026300
     19 C28        184.2680   154.1010   128.5560 ca         1 A1C      -0.111000
     20 C29        185.1550   155.0080   128.0120 ca         1 A1C      -0.068500
     21 C30        186.3810   154.5660   127.5130 ca         1 A1C      -0.019000
     22 C31        186.7030   153.2110   127.5550 ca         1 A1C      -0.068500
     23 C32        185.8030   152.3130   128.1000 ca         1 A1C      -0.111000
     24 C33        187.3080   155.5040   126.9690 cg         1 A1C       0.323000
     25 N05        176.6020   146.6890   130.8880 nb         1 A1C      -0.615000
     26 N12        175.9200   145.1040   124.7600 nb         1 A1C      -0.644000
     27 N18        179.2710   147.8820   127.3140 ns         1 A1C      -0.460400
     28 N20        180.8490   148.4540   128.9220 nd         1 A1C      -0.381000
     29 N21        181.6020   149.4810   129.3670 nd         1 A1C      -0.309000
     30 N34        188.0610   156.2640   126.5400 n1         1 A1C      -0.451000
     31 O02        176.3070   148.7510   127.9190 os         1 A1C      -0.331100
     32 O17        178.5020   149.2740   125.7190 o          1 A1C      -0.557100
     33 S23        180.2980   150.4210   127.3990 ss         1 A1C      -0.171800
     34 CL07       177.0470   144.1670   131.3500 cl         1 A1C      -0.156000
     35 H011       176.1230   150.7360   127.6390 h1         1 A1C       0.051367
     36 H012       175.3010   150.1460   129.0970 h1         1 A1C       0.051367
     37 H013       177.0760   150.3070   129.0730 h1         1 A1C       0.051367
     38 H041       176.2470   148.6920   130.6410 h4         1 A1C       0.035100
     39 H081       177.1060   144.3860   128.5140 ha         1 A1C       0.145000
     40 H111       175.3340   144.7260   126.6890 h4         1 A1C       0.030100
     41 H131       176.6090   145.6530   122.9010 h4         1 A1C       0.030100
     42 H141       178.0720   147.4580   123.7400 ha         1 A1C       0.144000
     43 H241       181.8170   152.6780   128.3870 hc         1 A1C       0.094700
     44 H251       182.6970   153.1070   130.6710 hc         1 A1C       0.087700
     45 H252       182.5590   151.3350   131.0780 hc         1 A1C       0.087700
     46 H261       184.0530   150.7310   129.2240 hc         1 A1C       0.103700
     47 H281       183.3260   154.4690   128.9430 ha         1 A1C       0.120000
     48 H291       184.9020   156.0600   127.9780 ha         1 A1C       0.126500
     49 H311       187.6510   152.8630   127.1670 ha         1 A1C       0.126500
     50 H321       186.0600   151.2620   128.1320 ha         1 A1C       0.120000
     51 H181       179.2980   146.9430   127.6910 hn         1 A1C       0.355500
@<TRIPOS>BOND
     1     1    31 1   
     2     1    35 1   
     3     1    36 1   
     4     1    37 1   
     5     2     3 ar  
     6     2     6 ar  
     7     2    31 1   
     8     3    25 ar  
     9     3    38 1   
    10     4     5 ar  
    11     4    25 ar  
    12     4    34 1   
    13     5     6 ar  
    14     5    39 1   
    15     6     7 1   
    16     7     8 ar  
    17     7    11 ar  
    18     8    26 ar  
    19     8    40 1   
    20     9    10 ar  
    21     9    26 ar  
    22     9    41 1   
    23    10    11 ar  
    24    10    42 1   
    25    11    12 1   
    26    12    27 1   
    27    12    32 2   
    28    13    27 1   
    29    13    28 2   
    30    13    33 1   
    31    14    15 1   
    32    14    29 2   
    33    14    33 1   
    34    15    16 1   
    35    15    17 1   
    36    15    43 1   
    37    16    17 1   
    38    16    44 1   
    39    16    45 1   
    40    17    18 1   
    41    17    46 1   
    42    18    19 ar  
    43    18    23 ar  
    44    19    20 ar  
    45    19    47 1   
    46    20    21 ar  
    47    20    48 1   
    48    21    22 ar  
    49    21    24 1   
    50    22    23 ar  
    51    22    49 1   
    52    23    50 1   
    53    24    30 3   
    54    27    51 1   
    55    28    29 1   
@<TRIPOS>SUBSTRUCTURE
     1 A1C         1 TEMP              0 ****  ****    0 ROOT
