@<TRIPOS>MOLECULE
A1C
    8     7     1     0     0
SMALL
abcg2


@<TRIPOS>ATOM
      1 C05         19.2920     2.6710   -16.5320 c3         1 A1C      -0.096400
      2 O01         19.5820     2.4270   -13.8320 o          1 A1C      -0.926833
      3 O03         17.8170     4.0720   -14.7340 o          1 A1C      -0.926833
      4 O04         20.3260     4.5660   -15.0610 o          1 A1C      -0.926833
      5 P02         19.2330     3.5120   -14.8500 p5         1 A1C       1.302500
      6 BR06        18.0050     1.1570   -16.7210 br         1 A1C      -0.463000
      7 H052        19.0380     3.3540   -17.3440 h1         1 A1C       0.018200
      8 H051        20.2680     2.2350   -16.7520 h1         1 A1C       0.018200
@<TRIPOS>BOND
     1     1     5 1   
     2     1     6 1   
     3     1     7 1   
     4     1     8 1   
     5     2     5 1   
     6     3     5 1   
     7     4     5 1   
@<TRIPOS>SUBSTRUCTURE
     1 A1C         1 TEMP              0 ****  ****    0 ROOT
