@<TRIPOS>MOLECULE
A1C
   43    45     1     0     0
SMALL
abcg2


@<TRIPOS>ATOM
      1 C02        117.3580   114.8200   127.6340 ca         1 A1C       0.079100
      2 C03        117.4720   114.8990   126.2280 ca         1 A1C       0.005000
      3 C05        116.6460   113.8500   124.1620 c          1 A1C       0.668100
      4 C08        114.6290   112.3480   124.3330 ca         1 A1C       0.491900
      5 C09        113.7220   111.6060   123.5400 ca         1 A1C       0.055100
      6 C11        113.0920   110.8870   121.3570 c3         1 A1C       0.216900
      7 C12        113.6050   111.0640   119.9620 ca         1 A1C      -0.107300
      8 C13        114.5310   110.1680   119.4360 ca         1 A1C      -0.082500
      9 C14        115.0370   110.3480   118.1560 ca         1 A1C      -0.113000
     10 C15        114.6240   111.4320   117.3930 ca         1 A1C      -0.092000
     11 C16        113.7010   112.3320   117.9110 ca         1 A1C      -0.113000
     12 C17        113.1960   112.1480   119.1910 ca         1 A1C      -0.082500
     13 C18        112.6980   110.9420   124.1800 ca         1 A1C      -0.135000
     14 C19        112.5970   111.0230   125.5710 ca         1 A1C      -0.162000
     15 C20        113.5240   111.7690   126.2580 ca         1 A1C       0.352900
     16 C22        118.3890   115.7960   125.6830 ca         1 A1C      -0.128000
     17 C23        119.1780   116.5910   126.4990 ca         1 A1C      -0.072000
     18 C24        119.0580   116.5020   127.8790 ca         1 A1C      -0.021000
     19 C25        118.1420   115.6130   128.4470 ca         1 A1C      -0.144000
     20 C26        119.8660   117.3180   128.7210 cg         1 A1C       0.331000
     21 N04        116.6270   114.0750   125.5040 ns         1 A1C      -0.149000
     22 N07        115.6590   113.0080   123.6860 ns         1 A1C      -0.335900
     23 N21        114.5170   112.4150   125.6410 nb         1 A1C      -0.734000
     24 N27        120.5230   117.9810   129.3990 n1         1 A1C      -0.462000
     25 O01        116.4580   113.9430   128.1130 oh         1 A1C      -0.540100
     26 O06        117.4510   114.3240   123.3800 o          1 A1C      -0.618100
     27 O10        113.9550   111.6260   122.2180 os         1 A1C      -0.350100
     28 H1         112.0670   111.2600   121.4490 h1         1 A1C       0.043700
     29 H2         113.0970   109.8300   121.6410 h1         1 A1C       0.043700
     30 H3         114.8540   109.3190   120.0280 ha         1 A1C       0.115000
     31 H4         115.7530   109.6430   117.7550 ha         1 A1C       0.117000
     32 H5         115.0170   111.5740   116.3940 ha         1 A1C       0.116000
     33 H6         113.3730   113.1760   117.3180 ha         1 A1C       0.117000
     34 H7         112.4730   112.8500   119.5910 ha         1 A1C       0.115000
     35 H8         111.9720   110.3620   123.6260 ha         1 A1C       0.126000
     36 H9         111.8030   110.5100   126.0950 ha         1 A1C       0.129000
     37 H10        113.4890   111.8640   127.3350 h4         1 A1C       0.027100
     38 H11        118.4940   115.8820   124.6150 ha         1 A1C       0.157000
     39 H12        119.8820   117.2800   126.0530 ha         1 A1C       0.129000
     40 H13        118.0470   115.5420   129.5240 ha         1 A1C       0.123000
     41 H14        115.9070   113.5570   126.0170 hn         1 A1C       0.220000
     42 H15        115.7030   112.8830   122.6850 hn         1 A1C       0.192000
     43 H16        116.4270   113.9660   129.0770 ho         1 A1C       0.470000
@<TRIPOS>BOND
     1     1     2 ar  
     2     1    19 ar  
     3     1    25 1   
     4     2    16 ar  
     5     2    21 1   
     6     3    21 1   
     7     3    22 1   
     8     3    26 2   
     9     4     5 ar  
    10     4    22 1   
    11     4    23 ar  
    12     5    13 ar  
    13     5    27 1   
    14     6     7 1   
    15     6    27 1   
    16     6    28 1   
    17     6    29 1   
    18     7     8 ar  
    19     7    12 ar  
    20     8     9 ar  
    21     8    30 1   
    22     9    10 ar  
    23     9    31 1   
    24    10    11 ar  
    25    10    32 1   
    26    11    12 ar  
    27    11    33 1   
    28    12    34 1   
    29    13    14 ar  
    30    13    35 1   
    31    14    15 ar  
    32    14    36 1   
    33    15    23 ar  
    34    15    37 1   
    35    16    17 ar  
    36    16    38 1   
    37    17    18 ar  
    38    17    39 1   
    39    18    19 ar  
    40    18    20 1   
    41    19    40 1   
    42    20    24 3   
    43    21    41 1   
    44    22    42 1   
    45    25    43 1   
@<TRIPOS>SUBSTRUCTURE
     1 A1C         1 TEMP              0 ****  ****    0 ROOT
