@<TRIPOS>MOLECULE
A1C
   40    42     1     0     0
SMALL
abcg2


@<TRIPOS>ATOM
      1 C4         118.2870   -67.0860   175.8940 ca         1 A1C      -0.096000
      2 C5         117.2800   -66.3370   176.4950 ca         1 A1C      -0.155000
      3 C6         117.4590   -64.9770   176.7150 ca         1 A1C       0.003700
      4 C7         116.3750   -64.1490   177.3530 c3         1 A1C      -0.006100
      5 C8         115.6220   -63.3360   176.3250 cx         1 A1C      -0.101700
      6 C10        117.2020   -61.2030   176.3800 ca         1 A1C       0.045700
      7 C13        119.5410   -59.7980   177.1040 ca         1 A1C      -0.170000
      8 C15        117.5850   -61.0740   177.7190 ca         1 A1C      -0.113500
      9 C1         121.0710   -63.2320   175.4730 c3         1 A1C       0.148900
     10 C2         119.6640   -65.1260   175.7220 ca         1 A1C       0.122100
     11 C3         119.4750   -66.4940   175.5070 ca         1 A1C      -0.183000
     12 C9         116.0180   -61.9440   175.8830 cx         1 A1C      -0.120400
     13 C11        118.0210   -60.5960   175.4210 ca         1 A1C      -0.113500
     14 C12        119.1710   -59.9040   175.7710 ca         1 A1C      -0.134500
     15 C14        118.7400   -60.3890   178.0720 ca         1 A1C      -0.134500
     16 C16        114.7270   -62.1750   176.6370 cx         1 A1C      -0.253000
     17 O2         112.3830   -61.9000   176.4190 o          1 A1C      -0.751250
     18 O3         113.5430   -62.3160   174.5670 o          1 A1C      -0.751250
     19 C18        114.5340   -61.6300   178.0520 c          1 A1C       0.755000
     20 O4         114.4980   -60.3880   178.1550 o          1 A1C      -0.751250
     21 O5         114.4060   -62.4550   178.9820 o          1 A1C      -0.751250
     22 C19        118.6580   -64.3770   176.3230 ca         1 A1C      -0.186000
     23 H1         118.1440   -68.1460   175.7280 ha         1 A1C       0.086000
     24 H2         116.3560   -66.8150   176.7970 ha         1 A1C       0.113000
     25 H3         116.8020   -63.5210   178.1330 hc         1 A1C       0.061700
     26 H4         115.6680   -64.8130   177.8560 hc         1 A1C       0.061700
     27 H5         115.2750   -63.9540   175.5010 hc         1 A1C       0.068700
     28 H6         120.4380   -59.2610   177.3860 ha         1 A1C       0.073000
     29 H7         116.9950   -61.5160   178.5070 ha         1 A1C       0.128000
     30 H8         122.0640   -63.0330   175.0750 h1         1 A1C       0.037700
     31 H9         120.3430   -62.6340   174.9190 h1         1 A1C       0.037700
     32 H10        121.0470   -62.9230   176.5220 h1         1 A1C       0.037700
     33 H11        120.2600   -67.0780   175.0410 ha         1 A1C       0.096000
     34 H12        115.8700   -61.7840   174.8210 hc         1 A1C       0.083700
     35 H13        117.7510   -60.6750   174.3740 ha         1 A1C       0.128000
     36 H14        119.7790   -59.4500   174.9980 ha         1 A1C       0.079500
     37 H15        119.0090   -60.3120   179.1180 ha         1 A1C       0.079500
     38 H18        118.7860   -63.3180   176.5040 ha         1 A1C       0.138000
     39 C17        113.4410   -62.1150   175.7950 c          1 A1C       0.755000
     40 O1         120.8470   -64.6180   175.3200 os         1 A1C      -0.369100
@<TRIPOS>BOND
     1     1     2 ar  
     2     1    11 ar  
     3     1    23 1   
     4     2     3 ar  
     5     2    24 1   
     6     3     4 1   
     7     3    22 ar  
     8     4     5 1   
     9     4    25 1   
    10     4    26 1   
    11     5    12 1   
    12     5    16 1   
    13     5    27 1   
    14     6     8 ar  
    15     6    12 1   
    16     6    13 ar  
    17     7    14 ar  
    18     7    15 ar  
    19     7    28 1   
    20     8    15 ar  
    21     8    29 1   
    22     9    30 1   
    23     9    31 1   
    24     9    32 1   
    25     9    40 1   
    26    10    11 ar  
    27    10    22 ar  
    28    10    40 1   
    29    11    33 1   
    30    12    16 1   
    31    12    34 1   
    32    13    14 ar  
    33    13    35 1   
    34    14    36 1   
    35    15    37 1   
    36    16    19 1   
    37    16    39 1   
    38    17    39 1   
    39    18    39 1   
    40    19    20 1   
    41    19    21 1   
    42    22    38 1   
@<TRIPOS>SUBSTRUCTURE
     1 A1C         1 TEMP              0 ****  ****    0 ROOT
