@<TRIPOS>MOLECULE
A1C
   74    79     1     0     0
SMALL
abcg2


@<TRIPOS>ATOM
      1 C1         168.3960   163.4640   180.9320 c6         1 A1C      -0.099700
      2 C2         169.7720   162.9620   181.3570 c6         1 A1C      -0.069400
      3 O1         171.8830   165.4150   195.3340 oh         1 A1C      -0.660000
      4 C          167.5870   162.3880   180.2240 c3         1 A1C      -0.084100
      5 O          169.5230   163.5310   184.2850 os         1 A1C      -0.465000
      6 C10        170.7770   165.4580   186.6920 c5         1 A1C      -0.036000
      7 C11        171.0220   166.7780   187.4160 c6         1 A1C      -0.062400
      8 C12        171.7490   166.5600   188.7450 c6         1 A1C      -0.070400
      9 C13        171.0310   165.5640   189.6670 c6         1 A1C      -0.047700
     10 C14        170.7310   164.2310   188.9480 c6         1 A1C      -0.042700
     11 C15        169.9190   163.2960   189.8410 c6         1 A1C      -0.070400
     12 C16        170.5520   163.1010   191.2110 c6         1 A1C      -0.068400
     13 C17        170.8170   164.4410   191.8860 c6         1 A1C      -0.054700
     14 C18        171.7340   165.3500   191.0330 c6         1 A1C      -0.030000
     15 C19        171.8700   166.6920   191.7730 c6         1 A1C      -0.065400
     16 C20        172.3390   166.5470   193.2190 c6         1 A1C      -0.111400
     17 C21        171.4240   165.6250   194.0120 c6         1 A1C       0.172300
     18 C22        171.3040   164.2770   193.3240 c6         1 A1C      -0.068400
     19 C23        173.1290   164.7390   190.8440 c3         1 A1C      -0.081100
     20 C24        172.1120   164.8450   186.2530 c3         1 A1C      -0.081100
     21 C26        167.6550   163.9760   182.1570 c6         1 A1C       0.165600
     22 C3         170.5040   164.0220   182.1720 c6         1 A1C      -0.083400
     23 C4         169.6560   164.5450   183.3210 c5         1 A1C       0.385000
     24 C5         170.2860   165.7260   184.0840 c5         1 A1C      -0.065700
     25 C6         169.7740   165.5340   185.5180 c5         1 A1C      -0.086700
     26 C7         169.0950   164.1420   185.4920 c5         1 A1C       0.160300
     27 C8         169.5410   163.3900   186.7490 c5         1 A1C      -0.071400
     28 C9         170.0010   164.5350   187.6490 c5         1 A1C      -0.064700
     29 O2         168.3910   164.9560   182.8650 os         1 A1C      -0.473000
     30 H1         168.5360   164.3080   180.2440 hc         1 A1C       0.053700
     31 H2         169.6580   162.0470   181.9470 hc         1 A1C       0.047700
     32 H3         170.3630   162.6900   180.4780 hc         1 A1C       0.047700
     33 H4         171.9500   166.2720   195.7670 ho         1 A1C       0.440000
     34 H5         166.6040   162.7550   179.9270 hc         1 A1C       0.034700
     35 H6         168.1000   162.0450   179.3240 hc         1 A1C       0.034700
     36 H7         167.4400   161.5200   180.8710 hc         1 A1C       0.034700
     37 H8         171.5940   167.4690   186.7890 hc         1 A1C       0.040200
     38 H9         170.0570   167.2590   187.6090 hc         1 A1C       0.040200
     39 H10        172.7720   166.2250   188.5530 hc         1 A1C       0.040200
     40 H11        171.8410   167.5240   189.2500 hc         1 A1C       0.040200
     41 H12        170.0500   166.0070   189.9000 hc         1 A1C       0.040700
     42 H13        171.6760   163.7290   188.7130 hc         1 A1C       0.053700
     43 H14        168.9130   163.7150   189.9730 hc         1 A1C       0.039200
     44 H15        169.7880   162.3300   189.3460 hc         1 A1C       0.039200
     45 H16        169.8890   162.5010   191.8420 hc         1 A1C       0.041200
     46 H17        171.4830   162.5300   191.1260 hc         1 A1C       0.041200
     47 H18        169.8490   164.9620   191.9420 hc         1 A1C       0.041700
     48 H19        172.5650   167.3500   191.2450 hc         1 A1C       0.039700
     49 H20        170.8990   167.2030   191.7630 hc         1 A1C       0.039700
     50 H21        173.3610   166.1570   193.2550 hc         1 A1C       0.044200
     51 H22        172.3690   167.5360   193.6890 hc         1 A1C       0.044200
     52 H23        170.4200   166.0810   194.0270 h1         1 A1C       0.024700
     53 H24        170.5960   163.6460   193.8710 hc         1 A1C       0.052700
     54 H25        172.2680   163.7570   193.3510 hc         1 A1C       0.052700
     55 H26        173.5990   164.4830   191.7930 hc         1 A1C       0.033700
     56 H27        173.1140   163.8280   190.2450 hc         1 A1C       0.033700
     57 H28        173.7970   165.4420   190.3440 hc         1 A1C       0.033700
     58 H29        172.7330   164.5480   187.0960 hc         1 A1C       0.035700
     59 H30        171.9860   163.9640   185.6230 hc         1 A1C       0.035700
     60 H31        172.6950   165.5690   185.6790 hc         1 A1C       0.035700
     61 H35        166.7170   164.4540   181.8660 h1         1 A1C       0.047200
     62 H36        167.3970   163.1300   182.8100 h1         1 A1C       0.047200
     63 H37        171.4460   163.6340   182.5650 hc         1 A1C       0.055200
     64 H38        170.7600   164.8690   181.5270 hc         1 A1C       0.055200
     65 H39        171.3650   165.5590   184.0480 hc         1 A1C       0.061700
     66 H40        169.0310   166.3030   185.7550 hc         1 A1C       0.063700
     67 H41        168.0030   164.2440   185.4900 h1         1 A1C       0.050700
     68 H42        168.7340   162.8010   187.1860 hc         1 A1C       0.055200
     69 H43        170.3630   162.7020   186.5320 hc         1 A1C       0.055200
     70 H44        169.0920   165.0900   187.9330 hc         1 A1C       0.042700
     71 C25        170.0230   167.1030   183.4960 c3         1 A1C      -0.071100
     72 H32        170.5900   167.8560   184.0450 hc         1 A1C       0.037700
     73 H33        170.3350   167.1620   182.4510 hc         1 A1C       0.037700
     74 H34        168.9710   167.3810   183.5500 hc         1 A1C       0.037700
@<TRIPOS>BOND
     1     1     2 1   
     2     1     4 1   
     3     1    21 1   
     4     1    30 1   
     5     2    22 1   
     6     2    31 1   
     7     2    32 1   
     8     3    17 1   
     9     3    33 1   
    10     4    34 1   
    11     4    35 1   
    12     4    36 1   
    13     5    23 1   
    14     5    26 1   
    15     6     7 1   
    16     6    20 1   
    17     6    25 1   
    18     6    28 1   
    19     7     8 1   
    20     7    37 1   
    21     7    38 1   
    22     8     9 1   
    23     8    39 1   
    24     8    40 1   
    25     9    10 1   
    26     9    14 1   
    27     9    41 1   
    28    10    11 1   
    29    10    28 1   
    30    10    42 1   
    31    11    12 1   
    32    11    43 1   
    33    11    44 1   
    34    12    13 1   
    35    12    45 1   
    36    12    46 1   
    37    13    14 1   
    38    13    18 1   
    39    13    47 1   
    40    14    15 1   
    41    14    19 1   
    42    15    16 1   
    43    15    48 1   
    44    15    49 1   
    45    16    17 1   
    46    16    50 1   
    47    16    51 1   
    48    17    18 1   
    49    17    52 1   
    50    18    53 1   
    51    18    54 1   
    52    19    55 1   
    53    19    56 1   
    54    19    57 1   
    55    20    58 1   
    56    20    59 1   
    57    20    60 1   
    58    21    29 1   
    59    21    61 1   
    60    21    62 1   
    61    22    23 1   
    62    22    63 1   
    63    22    64 1   
    64    23    24 1   
    65    23    29 1   
    66    24    25 1   
    67    24    65 1   
    68    24    71 1   
    69    25    26 1   
    70    25    66 1   
    71    26    27 1   
    72    26    67 1   
    73    27    28 1   
    74    27    68 1   
    75    27    69 1   
    76    28    70 1   
    77    71    72 1   
    78    71    73 1   
    79    71    74 1   
@<TRIPOS>SUBSTRUCTURE
     1 A1C         1 TEMP              0 ****  ****    0 ROOT
