@<TRIPOS>MOLECULE
A1C
   36    37     1     0     0
SMALL
abcg2


@<TRIPOS>ATOM
      1 N3          20.6910    -0.4920    59.4070 n7         1 A1C      -0.865400
      2 C4          21.3710    -0.8010    58.1640 c3         1 A1C       0.164800
      3 C5          20.3910    -1.3690    57.1480 c3         1 A1C      -0.114400
      4 C6          21.0230    -1.7000    55.8200 c3         1 A1C       0.185600
      5 C8          22.3310     1.2460    60.1240 ca         1 A1C      -0.101300
      6 C10         22.3600     3.5710    59.4790 ca         1 A1C      -0.093000
      7 C15         27.9240     1.9840    60.2650 cc         1 A1C       0.232900
      8 C17         26.6490     3.0410    58.9310 cd         1 A1C       0.399400
      9 C1          20.7540     0.1720    61.7470 c3         1 A1C      -0.085100
     10 C2          21.5630    -0.0190    60.4680 c3         1 A1C       0.221800
     11 F7          22.0010    -2.6870    55.9740 f          1 A1C      -0.273000
     12 C9          21.6550     2.4200    59.7920 ca         1 A1C      -0.111000
     13 C11         23.7480     3.5780    59.4950 ca         1 A1C      -0.119000
     14 C12         24.4240     2.4060    59.8020 ca         1 A1C       0.008800
     15 N13         25.8360     2.3870    59.8000 na         1 A1C      -0.076300
     16 C14         26.6520     1.6990    60.6620 cd         1 A1C      -0.222000
     17 N16         27.9090     2.8200    59.1830 nc         1 A1C      -0.668000
     18 C18         23.7180     1.2480    60.1110 ca         1 A1C      -0.110000
     19 H1          19.9560     0.1870    59.2390 hn         1 A1C       0.409000
     20 H3          22.1460    -1.5410    58.3810 h1         1 A1C       0.039700
     21 H4          21.8860     0.0660    57.7210 h1         1 A1C       0.039700
     22 H5          19.6040    -0.6340    56.9510 hc         1 A1C       0.056200
     23 H6          19.8950    -2.2520    57.5590 hc         1 A1C       0.056200
     24 H7          21.5050    -0.8220    55.3830 h1         1 A1C       0.042700
     25 H8          20.2790    -2.0750    55.1160 h1         1 A1C       0.042700
     26 H9          21.8270     4.4810    59.2340 ha         1 A1C       0.120000
     27 H11         26.2600     3.6440    58.1240 h5         1 A1C       0.056100
     28 H12         21.3920     0.4920    62.5690 hc         1 A1C       0.042700
     29 H13         19.9790     0.9290    61.6120 hc         1 A1C       0.042700
     30 H14         20.2680    -0.7610    62.0320 hc         1 A1C       0.042700
     31 H15         22.3000    -0.8100    60.6480 h1         1 A1C       0.065700
     32 H16         20.5720     2.4430    59.7810 ha         1 A1C       0.116000
     33 H17         24.2900     4.4900    59.2820 ha         1 A1C       0.128000
     34 H18         26.2660     1.1050    61.4730 h4         1 A1C       0.159000
     35 H19         24.2540     0.3310    60.3300 ha         1 A1C       0.127000
     36 H10         28.8450     1.6350    60.7060 h4         1 A1C       0.040100
@<TRIPOS>BOND
     1     1     2 1   
     2     1    10 1   
     3     1    19 1   
     4     2     3 1   
     5     2    20 1   
     6     2    21 1   
     7     3     4 1   
     8     3    22 1   
     9     3    23 1   
    10     4    11 1   
    11     4    24 1   
    12     4    25 1   
    13     5    10 1   
    14     5    12 ar  
    15     5    18 ar  
    16     6    12 ar  
    17     6    13 ar  
    18     6    26 1   
    19     7    16 2   
    20     7    17 1   
    21     7    36 1   
    22     8    15 1   
    23     8    17 2   
    24     8    27 1   
    25     9    10 1   
    26     9    28 1   
    27     9    29 1   
    28     9    30 1   
    29    10    31 1   
    30    12    32 1   
    31    13    14 ar  
    32    13    33 1   
    33    14    15 1   
    34    14    18 ar  
    35    15    16 1   
    36    16    34 1   
    37    18    35 1   
@<TRIPOS>SUBSTRUCTURE
     1 A1C         1 TEMP              0 ****  ****    0 ROOT
