@<TRIPOS>MOLECULE
A1C
   25    27     1     0     0
SMALL
abcg2


@<TRIPOS>ATOM
      1 C1         175.9240   174.2630   170.5390 cc         1 A1C       0.292900
      2 N1         176.0540   170.2030   169.5410 nu         1 A1C      -0.934200
      3 C2         175.0950   172.2260   170.5410 cd         1 A1C       0.381700
      4 N2         180.5360   169.6030   173.6740 nc         1 A1C      -0.513200
      5 C3         174.8960   170.7840   170.1510 c3         1 A1C       0.188500
      6 C4         177.2240   170.0260   170.2180 ca         1 A1C       0.364000
      7 C5         178.4070   169.6690   169.5080 ca         1 A1C       0.046000
      8 C6         179.6060   169.4500   170.1320 ca         1 A1C       0.001000
      9 C7         179.6770   169.5770   171.5220 ca         1 A1C      -0.256900
     10 C8         180.7800   169.4150   172.4170 cd         1 A1C       0.433800
     11 C9         178.5210   169.9200   172.2330 ca         1 A1C      -0.128000
     12 C10        177.3050   170.1500   171.6040 ca         1 A1C      -0.165000
     13 N          175.9710   173.0100   170.0070 nc         1 A1C      -0.625000
     14 C          174.9870   174.4320   171.5040 cd         1 A1C      -0.053000
     15 CL         174.6530   175.8480   172.3850 cl         1 A1C      -0.115000
     16 CL1        178.3210   169.5060   167.7820 cl         1 A1C      -0.204000
     17 S1         174.1250   172.9660   171.7680 ss         1 A1C       0.000600
     18 S          178.9260   170.0010   173.9120 ss         1 A1C       0.271500
     19 H1         176.6000   175.0320   170.1940 h4         1 A1C       0.057100
     20 H2         176.1240   170.3310   168.5450 hn         1 A1C       0.499000
     21 H3         174.0760   170.7190   169.4330 h1         1 A1C       0.071700
     22 H4         174.5770   170.2010   171.0190 h1         1 A1C       0.071700
     23 H5         180.4840   169.1850   169.5560 ha         1 A1C       0.134000
     24 H6         181.7830   169.1500   172.1040 h4         1 A1C       0.055800
     25 H7         176.4360   170.4210   172.1890 ha         1 A1C       0.126000
@<TRIPOS>BOND
     1     1    13 1   
     2     1    14 2   
     3     1    19 1   
     4     2     5 1   
     5     2     6 1   
     6     2    20 1   
     7     3     5 1   
     8     3    13 2   
     9     3    17 1   
    10     4    10 2   
    11     4    18 1   
    12     5    21 1   
    13     5    22 1   
    14     6     7 ar  
    15     6    12 ar  
    16     7     8 ar  
    17     7    16 1   
    18     8     9 ar  
    19     8    23 1   
    20     9    10 1   
    21     9    11 ar  
    22    10    24 1   
    23    11    12 ar  
    24    11    18 1   
    25    12    25 1   
    26    14    15 1   
    27    14    17 1   
@<TRIPOS>SUBSTRUCTURE
     1 A1C         1 TEMP              0 ****  ****    0 ROOT
