@<TRIPOS>MOLECULE
A1C
   31    33     1     0     0
SMALL
abcg2


@<TRIPOS>ATOM
      1 C15          4.6460     6.0990     5.4060 cc         1 A1C       0.464600
      2 C17          5.8570     4.6340     6.6310 cd         1 A1C       0.789800
      3 C20          3.7410     5.3920     7.5510 c          1 A1C       0.613200
      4 N02          4.5660     6.8220     4.2610 na         1 A1C      -0.303500
      5 N03          3.5520     7.6350     3.9950 nc         1 A1C      -0.387400
      6 C04          2.5790     7.7600     4.8240 cd         1 A1C       0.233300
      7 C05          1.4710     8.6990     4.4420 c3         1 A1C       0.199500
      8 N06          0.2250     8.0230     4.1520 nu         1 A1C      -0.906100
      9 C07          0.0890     7.2150     3.0870 cc         1 A1C       0.651400
     10 N08          0.9430     7.1100     2.0600 na         1 A1C      -0.269700
     11 N09          0.4360     6.2440     1.1740 nc         1 A1C      -0.218800
     12 N10         -0.6680     5.8510     1.6540 nd         1 A1C      -0.028000
     13 N11         -0.9320     6.4170     2.8340 nd         1 A1C      -0.448000
     14 C12          2.4810     7.0330     6.1000 c          1 A1C       0.507000
     15 O13          1.5030     7.1940     6.8230 o          1 A1C      -0.533100
     16 C14          3.6120     6.1850     6.3480 cd         1 A1C      -0.448400
     17 N16          5.7410     5.3470     5.5330 nc         1 A1C      -0.778300
     18 N18          6.9310     3.8770     6.8050 nv         1 A1C      -1.047200
     19 N19          4.9140     4.6430     7.6030 ns         1 A1C      -0.454400
     20 O21          2.9540     5.3270     8.4740 o          1 A1C      -0.494000
     21 H1           5.3160     7.4100     2.4390 h1         1 A1C       0.061033
     22 H2           6.5650     7.0720     3.6530 h1         1 A1C       0.061033
     23 H3           5.7090     5.7350     2.8700 h1         1 A1C       0.061033
     24 H4           1.7820     9.2900     3.5790 h1         1 A1C       0.078200
     25 H5           1.2770     9.4020     5.2510 h1         1 A1C       0.078200
     26 H6          -0.3780     7.8160     4.9330 hn         1 A1C       0.530000
     27 H7           1.8430     7.5410     1.9030 hn         1 A1C       0.386000
     28 H9           7.6410     3.8640     6.0910 hn         1 A1C       0.518000
     29 H10          7.0810     3.3210     7.6300 hn         1 A1C       0.518000
     30 H8           5.0440     4.0740     8.4320 hn         1 A1C       0.330500
     31 C01          5.6080     6.7500     3.2490 c3         1 A1C       0.236100
@<TRIPOS>BOND
     1     1     4 1   
     2     1    16 2   
     3     1    17 1   
     4     2    17 2   
     5     2    18 1   
     6     2    19 1   
     7     3    16 1   
     8     3    19 1   
     9     3    20 2   
    10     4     5 1   
    11     4    31 1   
    12     5     6 2   
    13     6     7 1   
    14     6    14 1   
    15     7     8 1   
    16     7    24 1   
    17     7    25 1   
    18     8     9 1   
    19     8    26 1   
    20     9    10 1   
    21     9    13 2   
    22    10    11 1   
    23    10    27 1   
    24    11    12 2   
    25    12    13 1   
    26    14    15 2   
    27    14    16 1   
    28    18    28 1   
    29    18    29 1   
    30    19    30 1   
    31    21    31 1   
    32    22    31 1   
    33    23    31 1   
@<TRIPOS>SUBSTRUCTURE
     1 A1C         1 TEMP              0 ****  ****    0 ROOT
