@<TRIPOS>MOLECULE
A1C
   66    71     1     0     0
SMALL
abcg2


@<TRIPOS>ATOM
      1 C10          8.8750    24.9610    21.9420 ca         1 A1C      -0.169000
      2 C13          3.8610    25.2170    21.1980 cp         1 A1C      -0.065000
      3 C15          3.2590    25.6640    18.8860 ca         1 A1C      -0.189600
      4 C17          4.9260    23.9850    19.4150 ca         1 A1C      -0.161000
      5 C20          2.1660    25.5730    24.5260 ca         1 A1C      -0.155000
      6 C21          2.3780    25.3270    23.1830 ca         1 A1C      -0.064000
      7 C22          2.4470    26.4990    17.9380 c          1 A1C       0.624700
      8 C24          8.2550    31.7400    20.3160 cc         1 A1C      -0.100300
      9 C26          9.5220    29.8540    21.0180 c5         1 A1C       0.300300
     10 C28          9.4500    31.7630    19.4450 cx         1 A1C      -0.020400
     11 C01          3.6510    25.4910    22.6370 cp         1 A1C      -0.059000
     12 C02          4.6650    25.9300    23.4920 ca         1 A1C       0.335300
     13 C03          6.0820    26.1960    23.0250 c3         1 A1C       0.072400
     14 C04          7.0540    25.1870    23.6530 c3         1 A1C      -0.047100
     15 C05          8.4660    25.4110    23.1950 ca         1 A1C      -0.025300
     16 C06          9.3600    26.1030    24.0040 ca         1 A1C      -0.169000
     17 C07         10.6420    26.3320    23.5450 ca         1 A1C       0.208500
     18 C08         11.0830    25.8990    22.3110 ca         1 A1C      -0.194000
     19 C09         10.1690    25.2120    21.5330 ca         1 A1C       0.208500
     20 C12          6.8780    29.8980    23.0840 c3         1 A1C      -0.012400
     21 C14          3.1330    25.9220    20.2490 ca         1 A1C      -0.015000
     22 C16          4.1750    24.6970    18.5000 ca         1 A1C       0.204000
     23 C18          4.7560    24.2400    20.7640 ca         1 A1C      -0.060000
     24 C19          3.2470    25.9870    25.2900 ca         1 A1C       0.344900
     25 C23          8.3200    30.7130    21.2120 cd         1 A1C      -0.248300
     26 C25          7.0810    32.4120    20.6690 cc         1 A1C       0.163300
     27 C27         10.2730    30.5840    19.9210 cx         1 A1C      -0.196700
     28 C29          6.4940    33.6310    20.0600 c3         1 A1C       0.298700
     29 C30         10.7320    31.9840    20.1930 cx         1 A1C      -0.090400
     30 F01         10.5680    24.7710    20.3320 f          1 A1C      -0.171000
     31 F02         11.4970    27.0000    24.3300 f          1 A1C      -0.171000
     32 F03          4.3680    24.4470    17.1980 f          1 A1C      -0.174000
     33 F04         10.2490    29.6880    22.1540 f          1 A1C      -0.100000
     34 F05          9.1860    28.5970    20.6180 f          1 A1C      -0.100000
     35 F06          6.9190    33.7700    18.7990 f          1 A1C      -0.105667
     36 F07          5.1600    33.5960    20.0440 f          1 A1C      -0.105667
     37 F08          6.8440    34.7470    20.7150 f          1 A1C      -0.105667
     38 N01          6.4890    27.5430    23.3600 ns         1 A1C      -0.491900
     39 N02          7.2630    30.8040    22.0360 na         1 A1C       0.213800
     40 N03          4.4560    26.1650    24.7830 nb         1 A1C      -0.683000
     41 N04          1.9290    25.8700    16.8760 nt         1 A1C      -0.599000
     42 N05          6.4900    31.8210    21.6980 nd         1 A1C      -0.447800
     43 O01          5.9800    28.4890    21.3640 o          1 A1C      -0.556100
     44 O02          2.2660    27.6830    18.1720 o          1 A1C      -0.586100
     45 H09          8.1950    24.4160    21.2970 ha         1 A1C       0.132000
     46 H13          5.6310    23.2380    19.0740 ha         1 A1C       0.137000
     47 H16          1.1900    25.4440    24.9740 ha         1 A1C       0.130000
     48 H17          1.5620    24.9950    22.5530 ha         1 A1C       0.126000
     49 H01          9.3800    32.0050    18.3940 hc         1 A1C       0.118700
     50 H03          6.1420    26.1100    21.9400 h1         1 A1C       0.098700
     51 H04          6.9910    25.2620    24.7410 hc         1 A1C       0.066200
     52 H05          6.7230    24.1820    23.3850 hc         1 A1C       0.066200
     53 H07          9.0630    26.4550    24.9840 ha         1 A1C       0.132000
     54 H08         12.0940    26.0830    21.9700 ha         1 A1C       0.152000
     55 H10          6.0620    30.3620    23.6400 h1         1 A1C       0.094700
     56 H11          7.7100    29.7600    23.7760 h1         1 A1C       0.094700
     57 H12          2.4450    26.6930    20.5710 ha         1 A1C       0.143000
     58 H14          5.3240    23.6630    21.4830 ha         1 A1C       0.117000
     59 H15          3.1290    26.1860    26.3490 h4         1 A1C       0.022100
     60 H02         10.8350    29.9780    19.2220 hc         1 A1C       0.118700
     61 H20         10.6760    32.3790    21.2000 hc         1 A1C       0.086700
     62 H21         11.5920    32.3180    19.6280 hc         1 A1C       0.086700
     63 H06          6.7900    27.7200    24.3070 hn         1 A1C       0.323500
     64 H18          1.3500    26.3830    16.2300 hn         1 A1C       0.318500
     65 H19          1.9890    24.8750    16.7460 hn         1 A1C       0.318500
     66 C11          6.4010    28.5690    22.5030 c          1 A1C       0.584100
@<TRIPOS>BOND
     1     1    15 ar  
     2     1    19 ar  
     3     1    45 1   
     4     2    11 1   
     5     2    21 ar  
     6     2    23 ar  
     7     3     7 1   
     8     3    21 ar  
     9     3    22 ar  
    10     4    22 ar  
    11     4    23 ar  
    12     4    46 1   
    13     5     6 ar  
    14     5    24 ar  
    15     5    47 1   
    16     6    11 ar  
    17     6    48 1   
    18     7    41 1   
    19     7    44 2   
    20     8    10 1   
    21     8    25 2   
    22     8    26 1   
    23     9    25 1   
    24     9    27 1   
    25     9    33 1   
    26     9    34 1   
    27    10    27 1   
    28    10    29 1   
    29    10    49 1   
    30    11    12 ar  
    31    12    13 1   
    32    12    40 ar  
    33    13    14 1   
    34    13    38 1   
    35    13    50 1   
    36    14    15 1   
    37    14    51 1   
    38    14    52 1   
    39    15    16 ar  
    40    16    17 ar  
    41    16    53 1   
    42    17    18 ar  
    43    17    31 1   
    44    18    19 ar  
    45    18    54 1   
    46    19    30 1   
    47    20    39 1   
    48    20    55 1   
    49    20    56 1   
    50    20    66 1   
    51    21    57 1   
    52    22    32 1   
    53    23    58 1   
    54    24    40 ar  
    55    24    59 1   
    56    25    39 1   
    57    26    28 1   
    58    26    42 2   
    59    27    29 1   
    60    27    60 1   
    61    28    35 1   
    62    28    36 1   
    63    28    37 1   
    64    29    61 1   
    65    29    62 1   
    66    38    63 1   
    67    38    66 1   
    68    39    42 1   
    69    41    64 1   
    70    41    65 1   
    71    43    66 2   
@<TRIPOS>SUBSTRUCTURE
     1 A1C         1 TEMP              0 ****  ****    0 ROOT
