@<TRIPOS>MOLECULE
A1C
   52    56     1     0     0
SMALL
abcg2


@<TRIPOS>ATOM
      1 C1          -8.4180   -34.0040     3.3650 c3         1 A1C       0.124300
      2 C10         -1.1560   -33.6200    13.0170 c          1 A1C       0.625700
      3 C11         -2.6750   -34.2400    14.8960 c6         1 A1C       0.098000
      4 C12         -2.9570   -33.4320    16.1570 c6         1 A1C      -0.143400
      5 C13         -1.8140   -33.5720    17.1360 c6         1 A1C       0.183000
      6 C14         -0.4740   -33.2690    16.5080 c6         1 A1C      -0.143400
      7 C15         -0.2750   -34.0850    15.2350 c6         1 A1C       0.098000
      8 C16         -2.4410   -33.8600    10.9020 ca         1 A1C      -0.070000
      9 C17         -3.4480   -33.4740    10.0380 ca         1 A1C      -0.128000
     10 C18         -4.3670   -32.4850    10.3930 ca         1 A1C       0.249000
     11 C19         -6.0820   -34.2300     8.7290 cc         1 A1C      -0.219000
     12 C2          -6.9200   -33.0690     6.3580 cd         1 A1C      -0.018000
     13 C20         -6.6400   -34.9970     7.7770 cd         1 A1C      -0.010000
     14 C21         -7.6390   -35.0140     5.4980 c          1 A1C       0.520800
     15 C3          -6.3160   -32.2470     7.3410 cd         1 A1C      -0.205000
     16 C4          -5.9010   -32.8110     8.5160 cc         1 A1C       0.374000
     17 C5          -5.8020   -30.6750     9.7500 c6         1 A1C       0.188800
     18 C6          -6.1090   -30.5060    11.2230 c6         1 A1C       0.142600
     19 C7          -4.2050   -31.8410    11.6300 ca         1 A1C       0.088100
     20 C8          -3.1940   -32.2360    12.4960 ca         1 A1C      -0.094000
     21 C9          -2.3170   -33.2550    12.1490 ca         1 A1C      -0.139600
     22 F1          -1.7980   -34.8540    17.6310 f          1 A1C      -0.122000
     23 F2          -2.0220   -32.7750    18.2290 f          1 A1C      -0.122000
     24 N1          -7.8270   -33.9590     4.6750 n          1 A1C      -0.147800
     25 N2          -7.3920   -32.7680     5.1850 nc         1 A1C      -0.215600
     26 N3          -5.3740   -32.0440     9.5350 nh         1 A1C      -0.847200
     27 N4          -1.3890   -33.8740    14.3260 n          1 A1C      -0.415800
     28 N5          -7.0400   -34.4180     6.6050 n          1 A1C      -0.027800
     29 O1          -4.9810   -30.8120    12.0260 os         1 A1C      -0.336100
     30 O2          -0.0340   -33.6490    12.5300 o          1 A1C      -0.587100
     31 H1          -9.2970   -33.3630     3.3240 h1         1 A1C       0.055700
     32 H2          -7.7020   -33.6770     2.6130 h1         1 A1C       0.055700
     33 H3          -8.7160   -35.0250     3.1480 h1         1 A1C       0.055700
     34 H4          -3.4720   -34.0920    14.1740 h1         1 A1C       0.064950
     35 H5          -2.6620   -35.3090    15.1320 h1         1 A1C       0.064950
     36 H6          -3.0750   -32.3770    15.9010 hc         1 A1C       0.076700
     37 H7          -3.8900   -33.7710    16.6140 hc         1 A1C       0.076700
     38 H8           0.3320   -33.4800    17.2140 hc         1 A1C       0.076700
     39 H9          -0.4330   -32.2050    16.2660 hc         1 A1C       0.076700
     40 H10         -0.1870   -35.1510    15.4710 h1         1 A1C       0.064950
     41 H11          0.6510   -33.7860    14.7520 h1         1 A1C       0.064950
     42 H12         -1.7450   -34.6280    10.5930 ha         1 A1C       0.134000
     43 H13         -3.5090   -33.9400     9.0640 ha         1 A1C       0.130000
     44 H14         -5.8050   -34.6840     9.6680 ha         1 A1C       0.144000
     45 H15         -6.8190   -36.0560     7.8840 h4         1 A1C       0.164000
     46 H16         -6.1910   -31.1960     7.1220 ha         1 A1C       0.146000
     47 H17         -5.0400   -29.9630     9.4210 h1         1 A1C       0.069200
     48 H18         -6.7120   -30.4790     9.1860 h1         1 A1C       0.069200
     49 H19         -6.3780   -29.4740    11.4420 h1         1 A1C       0.066200
     50 H20         -6.9500   -31.1490    11.4990 h1         1 A1C       0.066200
     51 H21         -3.0990   -31.7200    13.4440 ha         1 A1C       0.133000
     52 O3          -7.9070   -36.1950     5.3540 o          1 A1C      -0.552000
@<TRIPOS>BOND
     1     1    24 1   
     2     1    31 1   
     3     1    32 1   
     4     1    33 1   
     5     2    21 1   
     6     2    27 1   
     7     2    30 2   
     8     3     4 1   
     9     3    27 1   
    10     3    34 1   
    11     3    35 1   
    12     4     5 1   
    13     4    36 1   
    14     4    37 1   
    15     5     6 1   
    16     5    22 1   
    17     5    23 1   
    18     6     7 1   
    19     6    38 1   
    20     6    39 1   
    21     7    27 1   
    22     7    40 1   
    23     7    41 1   
    24     8     9 ar  
    25     8    21 ar  
    26     8    42 1   
    27     9    10 ar  
    28     9    43 1   
    29    10    19 ar  
    30    10    26 1   
    31    11    13 2   
    32    11    16 1   
    33    11    44 1   
    34    12    15 1   
    35    12    25 2   
    36    12    28 1   
    37    13    28 1   
    38    13    45 1   
    39    14    24 1   
    40    14    28 1   
    41    14    52 2   
    42    15    16 2   
    43    15    46 1   
    44    16    26 1   
    45    17    18 1   
    46    17    26 1   
    47    17    47 1   
    48    17    48 1   
    49    18    29 1   
    50    18    49 1   
    51    18    50 1   
    52    19    20 ar  
    53    19    29 1   
    54    20    21 ar  
    55    20    51 1   
    56    24    25 1   
@<TRIPOS>SUBSTRUCTURE
     1 A1C         1 TEMP              0 ****  ****    0 ROOT
