@<TRIPOS>MOLECULE
A1C
   31    30     1     0     0
SMALL
abcg2


@<TRIPOS>ATOM
      1 C          162.7130   143.4050   120.3250 c          1 A1C       0.686000
      2 CA         163.8620   142.4090   120.0130 c3         1 A1C       0.015500
      3 CB         163.6060   141.8060   118.6260 c3         1 A1C      -0.086400
      4 CG         164.7630   141.0070   118.0300 c3         1 A1C       0.177300
      5 CD         166.0610   141.8020   117.8630 c3         1 A1C       0.408700
      6 C21        169.4130   140.4870   116.7150 c3         1 A1C       0.145800
      7 N19        167.0700   140.9470   117.2700 n7         1 A1C      -0.878400
      8 N22        170.7500   141.0830   116.6020 n8         1 A1C      -1.005200
      9 NE         165.8350   143.0310   117.0770 n8         1 A1C      -1.038200
     10 N          164.0390   141.3380   121.0020 n8         1 A1C      -1.005200
     11 O          161.7440   142.9780   121.0010 o          1 A1C      -0.732500
     12 O58        164.3880   140.4960   116.7380 oh         1 A1C      -0.679000
     13 HA         164.7840   142.9930   119.9870 h1         1 A1C       0.034700
     14 HB3        163.3240   142.5990   117.9310 hc         1 A1C       0.051200
     15 HB2        162.7420   141.1360   118.7010 hc         1 A1C       0.051200
     16 HG2        165.0040   140.1700   118.6890 h1         1 A1C       0.049700
     17 HD2        166.4170   142.0370   118.8740 h2         1 A1C       0.043700
     18 H20B       168.6900   141.8580   118.2040 h1         1 A1C       0.031200
     19 H20A       168.4700   142.4000   116.5400 h1         1 A1C       0.031200
     20 H21A       169.0500   140.0620   115.7680 h1         1 A1C       0.032200
     21 H21B       169.4590   139.6670   117.4360 h1         1 A1C       0.032200
     22 H19        166.7600   140.6720   116.3440 hn         1 A1C       0.427000
     23 H22B       171.4210   140.3700   116.3350 hn         1 A1C       0.386000
     24 H22C       170.7560   141.7670   115.8520 hn         1 A1C       0.386000
     25 HE1        165.1250   143.6030   117.5240 hn         1 A1C       0.402000
     26 HE2        166.6800   143.5920   117.0890 hn         1 A1C       0.402000
     27 H          164.3310   141.7500   121.8820 hn         1 A1C       0.384500
     28 H2         163.1190   140.9460   121.1900 hn         1 A1C       0.384500
     29 H58        163.6790   139.8560   116.8690 ho         1 A1C       0.428000
     30 OXT        162.8350   144.5600   119.8400 o          1 A1C      -0.732500
     31 C20        168.4090   141.5220   117.2020 c3         1 A1C       0.165800
@<TRIPOS>BOND
     1     1     2 1   
     2     1    11 1   
     3     1    30 1   
     4     2     3 1   
     5     2    10 1   
     6     2    13 1   
     7     3     4 1   
     8     3    14 1   
     9     3    15 1   
    10     4     5 1   
    11     4    12 1   
    12     4    16 1   
    13     5     7 1   
    14     5     9 1   
    15     5    17 1   
    16     6     8 1   
    17     6    20 1   
    18     6    21 1   
    19     6    31 1   
    20     7    22 1   
    21     7    31 1   
    22     8    23 1   
    23     8    24 1   
    24     9    25 1   
    25     9    26 1   
    26    10    27 1   
    27    10    28 1   
    28    12    29 1   
    29    18    31 1   
    30    19    31 1   
@<TRIPOS>SUBSTRUCTURE
     1 A1C         1 TEMP              0 ****  ****    0 ROOT
