@<TRIPOS>MOLECULE
A1C
   17    17     1     0     0
SMALL
abcg2


@<TRIPOS>ATOM
      1 C4          37.2670    -0.5670    -1.9720 ca         1 A1C       0.283000
      2 C2          38.6170     0.5180    -3.6660 ca         1 A1C       0.011000
      3 N1          36.1350    -0.5950    -1.1740 nv         1 A1C      -1.090000
      4 C6          39.2780    -1.6280    -2.8130 ca         1 A1C       0.011000
      5 C5          38.1710    -1.6390    -1.9760 ca         1 A1C      -0.208500
      6 O2          41.8270    -1.5760    -4.2760 o          1 A1C      -0.702200
      7 C1          39.5140    -0.5500    -3.6610 ca         1 A1C      -0.268500
      8 C3          37.5100     0.5130    -2.8350 ca         1 A1C      -0.208500
      9 O1          40.3840    -0.8220    -6.1030 o          1 A1C      -0.702200
     10 O3          41.4850     0.8170    -4.6680 o          1 A1C      -0.702200
     11 S1          40.9150    -0.5330    -4.7620 s6         1 A1C       1.281100
     12 H2          38.7920     1.3650    -4.3170 ha         1 A1C       0.125000
     13 HN11        36.1830    -1.1980    -0.3660 hn         1 A1C       0.433000
     14 HN12        35.7270     0.3030    -0.9610 hn         1 A1C       0.433000
     15 H6          39.9710    -2.4580    -2.7990 ha         1 A1C       0.125000
     16 H5          38.0020    -2.4790    -1.3120 ha         1 A1C       0.089500
     17 H3          36.8240     1.3520    -2.8410 ha         1 A1C       0.089500
@<TRIPOS>BOND
     1     1     3 1   
     2     1     5 ar  
     3     1     8 ar  
     4     2     7 ar  
     5     2     8 ar  
     6     2    12 1   
     7     3    13 1   
     8     3    14 1   
     9     4     5 ar  
    10     4     7 ar  
    11     4    15 1   
    12     5    16 1   
    13     6    11 1   
    14     7    11 1   
    15     8    17 1   
    16     9    11 1   
    17    10    11 1   
@<TRIPOS>SUBSTRUCTURE
     1 A1C         1 TEMP              0 ****  ****    0 ROOT
