@<TRIPOS>MOLECULE
A1C
   44    46     1     0     0
SMALL
abcg2


@<TRIPOS>ATOM
      1 C01        116.7780   129.9610   112.6030 c3         1 A1C       0.135900
      2 C03        117.1040   129.5360   110.3200 c3         1 A1C       0.131300
      3 C04        118.5780   129.8000   110.1810 cc         1 A1C       0.371700
      4 C07        121.9520   129.3150   110.9100 cc         1 A1C      -0.101300
      5 C08        122.2000   128.2820   111.9580 c3         1 A1C       0.180300
      6 C10        123.0150   126.3860   110.5060 c5         1 A1C       0.099000
      7 C11        122.3020   125.1410   109.9730 c5         1 A1C      -0.077700
      8 C12        123.2690   124.0570   109.5260 c3         1 A1C      -0.066400
      9 C13        122.5410   122.8880   108.8700 c3         1 A1C      -0.150400
     10 C14        123.4650   121.8010   108.3920 c3         1 A1C       0.299000
     11 C18        121.3730   124.7590   111.1240 c5         1 A1C      -0.168400
     12 C19        121.1220   126.0620   111.8540 c          1 A1C       0.569000
     13 C21        122.7280   130.1210   110.1110 cd         1 A1C       0.129300
     14 C23        120.7660   130.5520   109.5120 cc         1 A1C       0.417900
     15 C25        124.2050   130.2520   110.0440 c3         1 A1C       0.300700
     16 F15        122.8020   120.8110   107.7740 f          1 A1C      -0.117333
     17 F16        124.3790   122.2510   107.5170 f          1 A1C      -0.117333
     18 F17        124.1460   121.2320   109.4000 f          1 A1C      -0.117333
     19 F26        124.5890   131.5260   110.1910 f          1 A1C      -0.107667
     20 F27        124.8280   129.5360   110.9830 f          1 A1C      -0.107667
     21 F28        124.6780   129.8450   108.8580 f          1 A1C      -0.107667
     22 N05        119.4700   129.1900   110.8700 n2         1 A1C      -0.389800
     23 N06        120.6850   129.6180   110.4910 na         1 A1C       0.077300
     24 N09        122.0520   126.9490   111.4300 n          1 A1C      -0.423800
     25 N22        121.9900   130.8870   109.2480 nd         1 A1C      -0.583000
     26 O02        116.7750   129.0070   111.5610 os         1 A1C      -0.415000
     27 S24        119.1680   130.9620   109.0040 ss         1 A1C      -0.172800
     28 H012       116.4360   129.4580   113.5050 h1         1 A1C       0.038700
     29 H011       117.7740   130.3710   112.7930 h1         1 A1C       0.038700
     30 H013       116.0990   130.7920   112.3870 h1         1 A1C       0.038700
     31 H031       116.5560   130.4620   110.0990 h1         1 A1C       0.069700
     32 H032       116.8190   128.8080   109.5560 h1         1 A1C       0.069700
     33 H082       123.1950   128.4110   112.3820 h1         1 A1C       0.086700
     34 H081       121.4880   128.4100   112.7730 h1         1 A1C       0.086700
     35 H101       123.9450   126.1280   111.0270 h1         1 A1C       0.053700
     36 H102       123.2620   127.0910   109.7110 h1         1 A1C       0.053700
     37 H111       121.6890   125.4450   109.1180 hc         1 A1C       0.064700
     38 H121       123.8440   123.7150   110.3910 hc         1 A1C       0.061700
     39 H122       123.9820   124.4930   108.8220 hc         1 A1C       0.061700
     40 H132       121.9650   123.2420   108.0110 hc         1 A1C       0.079700
     41 H131       121.8290   122.4370   109.5650 hc         1 A1C       0.079700
     42 H182       120.4360   124.2990   110.8130 hc         1 A1C       0.079200
     43 H181       121.8600   124.0670   111.8210 hc         1 A1C       0.079200
     44 O20        120.2630   126.2760   112.6890 o          1 A1C      -0.529000
@<TRIPOS>BOND
     1     1    26 1   
     2     1    28 1   
     3     1    29 1   
     4     1    30 1   
     5     2     3 1   
     6     2    26 1   
     7     2    31 1   
     8     2    32 1   
     9     3    22 2   
    10     3    27 1   
    11     4     5 1   
    12     4    13 2   
    13     4    23 1   
    14     5    24 1   
    15     5    33 1   
    16     5    34 1   
    17     6     7 1   
    18     6    24 1   
    19     6    35 1   
    20     6    36 1   
    21     7     8 1   
    22     7    11 1   
    23     7    37 1   
    24     8     9 1   
    25     8    38 1   
    26     8    39 1   
    27     9    10 1   
    28     9    40 1   
    29     9    41 1   
    30    10    16 1   
    31    10    17 1   
    32    10    18 1   
    33    11    12 1   
    34    11    42 1   
    35    11    43 1   
    36    12    24 1   
    37    12    44 2   
    38    13    15 1   
    39    13    25 1   
    40    14    23 1   
    41    14    25 2   
    42    14    27 1   
    43    15    19 1   
    44    15    20 1   
    45    15    21 1   
    46    22    23 1   
@<TRIPOS>SUBSTRUCTURE
     1 A1C         1 TEMP              0 ****  ****    0 ROOT
