@<TRIPOS>MOLECULE
A1C
   36    38     1     0     0
SMALL
abcg2


@<TRIPOS>ATOM
      1 C10         23.9180    19.4610   -19.6220 ca         1 A1C      -0.081000
      2 C15         21.3340    15.2090   -20.5590 ca         1 A1C      -0.116500
      3 C17         22.8920    13.5560   -21.3610 ca         1 A1C      -0.123000
      4 C20         21.8000    18.1000   -15.1690 cc         1 A1C      -0.425200
      5 C21         19.6190    17.2660   -14.5040 cc         1 A1C       0.027900
      6 C04         19.2490    17.3180   -15.8190 cd         1 A1C      -0.130200
      7 C06         21.3780    18.1260   -16.4730 cd         1 A1C       0.185800
      8 C07         22.2520    18.5760   -17.5740 ca         1 A1C      -0.076800
      9 C08         22.8650    19.8230   -17.5050 ca         1 A1C      -0.056000
     10 C09         23.6980    20.2700   -18.5190 ca         1 A1C      -0.153000
     11 C11         23.3250    18.2090   -19.7120 ca         1 A1C      -0.192000
     12 C12         22.5020    17.7640   -18.6860 ca         1 A1C       0.152100
     13 C14         22.2550    15.5880   -19.5950 ca         1 A1C       0.111100
     14 C16         21.6570    14.1850   -21.4390 ca         1 A1C      -0.105000
     15 C18         23.8060    13.9490   -20.3920 ca         1 A1C      -0.105000
     16 C19         23.4920    14.9640   -19.5000 ca         1 A1C      -0.116500
     17 C23         20.9560    17.6820   -14.0870 c          1 A1C       0.571500
     18 N05         20.1260    17.7500   -16.7670 na         1 A1C      -0.558000
     19 O01         17.0970    16.4980   -15.4060 o          1 A1C      -0.702500
     20 O03         17.6560    17.0110   -17.5130 o          1 A1C      -0.702500
     21 O13         21.8900    16.5510   -18.6880 os         1 A1C      -0.237200
     22 O24         21.3070    17.6550   -12.9010 o          1 A1C      -0.627100
     23 H101        24.5570    19.7990   -20.4280 ha         1 A1C       0.103000
     24 H151        20.3720    15.7040   -20.6110 ha         1 A1C       0.136000
     25 H171        23.1410    12.7600   -22.0500 ha         1 A1C       0.107000
     26 H201        22.8160    18.3970   -14.9460 ha         1 A1C       0.180000
     27 H081        22.6750    20.4520   -16.6440 ha         1 A1C       0.129000
     28 H091        24.1630    21.2440   -18.4500 ha         1 A1C       0.110000
     29 H111        23.5120    17.5880   -20.5790 ha         1 A1C       0.121000
     30 H161        20.9390    13.8820   -22.1900 ha         1 A1C       0.110500
     31 H181        24.7680    13.4580   -20.3220 ha         1 A1C       0.110500
     32 H191        24.1990    15.2650   -18.7370 ha         1 A1C       0.136000
     33 H051        19.7720    17.7770   -17.7140 hn         1 A1C       0.526000
     34 H221        17.9410    16.6120   -14.0640 ho         1 A1C       0.526000
     35 C02         17.8820    16.9090   -16.3020 c          1 A1C       0.733200
     36 O22         18.7800    16.8400   -13.5590 oh         1 A1C      -0.569100
@<TRIPOS>BOND
     1     1    10 ar  
     2     1    11 ar  
     3     1    23 1   
     4     2    13 ar  
     5     2    14 ar  
     6     2    24 1   
     7     3    14 ar  
     8     3    15 ar  
     9     3    25 1   
    10     4     7 2   
    11     4    17 1   
    12     4    26 1   
    13     5     6 2   
    14     5    17 1   
    15     5    36 1   
    16     6    18 1   
    17     6    35 1   
    18     7     8 1   
    19     7    18 1   
    20     8     9 ar  
    21     8    12 ar  
    22     9    10 ar  
    23     9    27 1   
    24    10    28 1   
    25    11    12 ar  
    26    11    29 1   
    27    12    21 1   
    28    13    16 ar  
    29    13    21 1   
    30    14    30 1   
    31    15    16 ar  
    32    15    31 1   
    33    16    32 1   
    34    17    22 2   
    35    18    33 1   
    36    19    35 1   
    37    20    35 1   
    38    34    36 1   
@<TRIPOS>SUBSTRUCTURE
     1 A1C         1 TEMP              0 ****  ****    0 ROOT
