@<TRIPOS>MOLECULE
A1C
   37    39     1     0     0
SMALL
abcg2


@<TRIPOS>ATOM
      1 O1         -41.7060   -32.9890     1.1260 o          1 A1C      -0.728000
      2 C1         -42.4760   -32.1840     1.6720 c          1 A1C       0.716000
      3 C2         -43.1360   -31.1110     0.7830 c3         1 A1C      -0.220400
      4 C3         -44.6410   -30.9030     1.0030 c3         1 A1C       0.176000
      5 C5         -46.0160   -29.6610     4.2820 ca         1 A1C       0.127500
      6 C6         -45.0740   -29.9650     6.3470 ca         1 A1C       0.135900
      7 C7         -46.9490   -28.7900     6.2700 ca         1 A1C       0.109500
      8 C8         -47.0490   -28.9300     4.8610 ca         1 A1C      -0.154800
      9 C10        -48.7760   -27.7290     5.6040 cc         1 A1C      -0.192100
     10 C11        -45.4460   -32.0980     0.5380 ca         1 A1C      -0.098300
     11 C12        -46.0030   -32.1030    -0.7370 ca         1 A1C      -0.051500
     12 C13        -46.6980   -33.1990    -1.2250 ca         1 A1C      -0.183000
     13 C14        -46.8530   -34.3300    -0.4290 ca         1 A1C       0.115100
     14 C15        -46.3090   -34.3390     0.8530 ca         1 A1C      -0.183000
     15 C16        -45.6140   -33.2340     1.3230 ca         1 A1C      -0.051500
     16 C9         -48.2330   -28.2390     4.4630 cd         1 A1C      -0.174200
     17 N1         -44.8830   -30.5670     2.3870 ns         1 A1C      -0.457900
     18 N2         -45.0460   -30.1680     5.0340 nb         1 A1C      -0.168000
     19 N3         -45.9870   -29.2900     7.0250 nb         1 A1C      -0.210000
     20 N4         -48.0060   -28.0600     6.6890 na         1 A1C      -0.333400
     21 O2         -46.8430   -29.4760     2.0650 o          1 A1C      -0.649100
     22 O3         -47.5340   -35.3750    -0.9440 oh         1 A1C      -0.552100
     23 O4         -42.7420   -32.1290     2.9010 o          1 A1C      -0.728000
     24 H2         -42.9770   -31.3430    -0.2710 hc         1 A1C       0.036200
     25 H1         -42.6330   -30.1550     0.9750 hc         1 A1C       0.036200
     26 H3         -44.9430   -30.0490     0.3900 h1         1 A1C       0.038700
     27 H5         -44.2620   -30.3990     6.9200 h5         1 A1C       0.051100
     28 H7         -49.6720   -27.1430     5.7340 h4         1 A1C       0.206000
     29 H9         -45.8970   -31.2290    -1.3700 ha         1 A1C       0.123500
     30 H10        -47.1260   -33.1780    -2.2200 ha         1 A1C       0.105000
     31 H12        -46.4250   -35.2100     1.4880 ha         1 A1C       0.105000
     32 H13        -45.1940   -33.2690     2.3210 ha         1 A1C       0.123500
     33 H6         -48.6320   -28.1300     3.4710 ha         1 A1C       0.230000
     34 H4         -44.2060   -30.9500     3.0470 hn         1 A1C       0.401500
     35 H8         -48.1960   -27.8000     7.6450 hn         1 A1C       0.353000
     36 H11        -47.5870   -36.0920    -0.3020 ho         1 A1C       0.453000
     37 C4         -45.9560   -29.8980     2.7980 c          1 A1C       0.492600
@<TRIPOS>BOND
     1     1     2 1   
     2     2     3 1   
     3     2    23 1   
     4     3     4 1   
     5     3    24 1   
     6     3    25 1   
     7     4    10 1   
     8     4    17 1   
     9     4    26 1   
    10     5     8 ar  
    11     5    18 ar  
    12     5    37 1   
    13     6    18 ar  
    14     6    19 ar  
    15     6    27 1   
    16     7     8 ar  
    17     7    19 ar  
    18     7    20 1   
    19     8    16 1   
    20     9    16 2   
    21     9    20 1   
    22     9    28 1   
    23    10    11 ar  
    24    10    15 ar  
    25    11    12 ar  
    26    11    29 1   
    27    12    13 ar  
    28    12    30 1   
    29    13    14 ar  
    30    13    22 1   
    31    14    15 ar  
    32    14    31 1   
    33    15    32 1   
    34    16    33 1   
    35    17    34 1   
    36    17    37 1   
    37    20    35 1   
    38    21    37 2   
    39    22    36 1   
@<TRIPOS>SUBSTRUCTURE
     1 A1C         1 TEMP              0 ****  ****    0 ROOT
