@<TRIPOS>MOLECULE
A1C
   39    41     1     0     0
SMALL
abcg2


@<TRIPOS>ATOM
      1 N2         -44.7580   -29.5960     5.6720 nb         1 A1C      -0.186000
      2 C3         -45.4050   -27.1280    -1.0150 ca         1 A1C      -0.096000
      3 C6         -44.2360   -27.4810     1.4580 ca         1 A1C      -0.099000
      4 C9         -43.8060   -30.7380     1.2160 c3         1 A1C      -0.224400
      5 C12        -45.9370   -29.2330     5.1810 ca         1 A1C       0.128500
      6 C14        -46.6280   -28.8600     7.4060 ca         1 A1C       0.112500
      7 C17        -48.7300   -28.1860     7.2260 cc         1 A1C      -0.187100
      8 C10        -43.9130   -32.1180     1.8990 c          1 A1C       0.715000
      9 C11        -46.1090   -29.2680     3.6900 c          1 A1C       0.496600
     10 C13        -44.5710   -29.5710     6.9880 ca         1 A1C       0.139900
     11 C15        -46.9650   -28.8350     6.0270 ca         1 A1C      -0.150800
     12 C16        -48.3210   -28.3970     5.9430 cd         1 A1C      -0.174200
     13 C2         -45.5410   -28.3530    -0.3660 ca         1 A1C      -0.058300
     14 C4         -44.6880   -26.0990    -0.4250 ca         1 A1C      -0.023900
     15 C5         -44.0970   -26.2600     0.8160 ca         1 A1C      -0.098000
     16 C7         -44.9470   -28.5310     0.8890 ca         1 A1C      -0.049300
     17 C8         -45.0130   -29.8720     1.5870 c3         1 A1C       0.163000
     18 N1         -45.0510   -29.7400     3.0270 ns         1 A1C      -0.453900
     19 N3         -45.4570   -29.2150     7.9030 nb         1 A1C      -0.207000
     20 N4         -47.7140   -28.4620     8.1040 na         1 A1C      -0.331400
     21 O1         -44.7610   -32.8970     1.4250 o          1 A1C      -0.727000
     22 O2         -47.1450   -28.8890     3.1640 o          1 A1C      -0.626100
     23 O3         -43.1770   -32.3150     2.8880 o          1 A1C      -0.727000
     24 BR1        -44.5100   -24.4500    -1.3340 br         1 A1C      -0.146100
     25 H6         -43.7760   -27.6090     2.4300 ha         1 A1C       0.122000
     26 H8         -43.7860   -30.8480     0.1300 hc         1 A1C       0.033700
     27 H9         -42.8920   -30.2140     1.5100 hc         1 A1C       0.033700
     28 H13        -49.6880   -27.8530     7.5920 h4         1 A1C       0.208000
     29 H3         -45.7310   -30.3520    -1.1680 hc         1 A1C       0.048367
     30 H2         -47.1980   -29.7330    -0.4320 hc         1 A1C       0.048367
     31 H1         -46.6870   -29.1370    -2.0070 hc         1 A1C       0.048367
     32 H11        -43.5930   -29.8720     7.3440 h5         1 A1C       0.050100
     33 H12        -48.9160   -28.2600     5.0580 ha         1 A1C       0.231000
     34 H5         -43.5370   -25.4610     1.2830 ha         1 A1C       0.116000
     35 H7         -45.9180   -30.3950     1.2680 h1         1 A1C       0.086700
     36 H10        -44.2620   -30.0610     3.5730 hn         1 A1C       0.370500
     37 H14        -47.7690   -28.3840     9.1070 hn         1 A1C       0.354000
     38 C1         -46.3280   -29.4500    -1.0280 c3         1 A1C      -0.052800
     39 H4         -45.8670   -26.9890    -1.9840 ha         1 A1C       0.114000
@<TRIPOS>BOND
     1     1     5 ar  
     2     1    10 ar  
     3     2    13 ar  
     4     2    14 ar  
     5     2    39 1   
     6     3    15 ar  
     7     3    16 ar  
     8     3    25 1   
     9     4     8 1   
    10     4    17 1   
    11     4    26 1   
    12     4    27 1   
    13     5     9 1   
    14     5    11 ar  
    15     6    11 ar  
    16     6    19 ar  
    17     6    20 1   
    18     7    12 2   
    19     7    20 1   
    20     7    28 1   
    21     8    21 1   
    22     8    23 1   
    23     9    18 1   
    24     9    22 2   
    25    10    19 ar  
    26    10    32 1   
    27    11    12 1   
    28    12    33 1   
    29    13    16 ar  
    30    13    38 1   
    31    14    15 ar  
    32    14    24 1   
    33    15    34 1   
    34    16    17 1   
    35    17    18 1   
    36    17    35 1   
    37    18    36 1   
    38    20    37 1   
    39    29    38 1   
    40    30    38 1   
    41    31    38 1   
@<TRIPOS>SUBSTRUCTURE
     1 A1C         1 TEMP              0 ****  ****    0 ROOT
