@<TRIPOS>MOLECULE
A1C
   39    41     1     0     0
SMALL
abcg2


@<TRIPOS>ATOM
      1 N2         -48.4890   -31.1810     4.4050 nb         1 A1C      -0.200000
      2 C3         -45.0380   -26.8120    -0.0040 ca         1 A1C      -0.122000
      3 C6         -46.8540   -28.7330     0.7710 ca         1 A1C      -0.103000
      4 C9         -44.6210   -31.0100     1.6730 c3         1 A1C      -0.226400
      5 C12        -47.9660   -30.0710     4.9130 ca         1 A1C       0.132500
      6 C14        -49.6110   -30.1960     6.6000 ca         1 A1C       0.112500
      7 C17        -49.2130   -28.4410     7.8910 cc         1 A1C      -0.188100
      8 C10        -44.0170   -32.0510     2.6440 c          1 A1C       0.718000
      9 C11        -46.7840   -29.4680     4.2070 c          1 A1C       0.500600
     10 C13        -49.5340   -31.7360     5.0090 ca         1 A1C       0.137900
     11 C15        -48.5020   -29.4940     6.0580 ca         1 A1C      -0.148800
     12 C16        -48.2720   -28.3710     6.9080 cd         1 A1C      -0.170200
     13 C2         -44.6640   -27.7440     0.9620 ca         1 A1C      -0.059300
     14 C4         -46.3000   -26.8320    -0.5810 ca         1 A1C      -0.128000
     15 C5         -47.2140   -27.7990    -0.1900 ca         1 A1C      -0.125000
     16 C7         -45.5920   -28.7190     1.3560 ca         1 A1C      -0.067300
     17 C8         -45.2020   -29.7810     2.3640 c3         1 A1C       0.164000
     18 N1         -46.3230   -30.1900     3.1840 ns         1 A1C      -0.442900
     19 N3         -50.1380   -31.3000     6.1010 nb         1 A1C      -0.207000
     20 N4         -50.0170   -29.5360     7.7060 na         1 A1C      -0.331400
     21 O1         -44.1360   -33.2460     2.3160 o          1 A1C      -0.728000
     22 O2         -46.3110   -28.4030     4.5780 o          1 A1C      -0.621100
     23 O3         -43.4320   -31.6000     3.6480 o          1 A1C      -0.728000
     24 H7         -47.5760   -29.4810     1.0750 ha         1 A1C       0.112000
     25 H10        -45.3830   -31.4680     1.0340 hc         1 A1C       0.031700
     26 H9         -43.8250   -30.6790     0.9980 hc         1 A1C       0.031700
     27 H14        -49.3790   -27.7820     8.7280 h4         1 A1C       0.208000
     28 H3         -43.3350   -27.4790     2.6430 hc         1 A1C       0.045367
     29 H1         -42.7360   -28.6070     1.4420 hc         1 A1C       0.045367
     30 H2         -42.7040   -26.8800     1.1150 hc         1 A1C       0.045367
     31 H12        -49.9300   -32.6390     4.5590 h5         1 A1C       0.046100
     32 H13        -47.5140   -27.6140     6.8120 ha         1 A1C       0.233000
     33 H5         -46.5660   -26.0950    -1.3280 ha         1 A1C       0.094000
     34 H6         -48.2030   -27.8290    -0.6310 ha         1 A1C       0.096000
     35 H8         -44.4400   -29.3770     3.0310 h1         1 A1C       0.099700
     36 H11        -46.8170   -31.0430     2.9610 hn         1 A1C       0.345500
     37 H15        -50.7880   -29.8060     8.2980 hn         1 A1C       0.354000
     38 C1         -43.2910   -27.6760     1.5690 c3         1 A1C      -0.051800
     39 H4         -44.3250   -26.0540    -0.3060 ha         1 A1C       0.095000
@<TRIPOS>BOND
     1     1     5 ar  
     2     1    10 ar  
     3     2    13 ar  
     4     2    14 ar  
     5     2    39 1   
     6     3    15 ar  
     7     3    16 ar  
     8     3    24 1   
     9     4     8 1   
    10     4    17 1   
    11     4    25 1   
    12     4    26 1   
    13     5     9 1   
    14     5    11 ar  
    15     6    11 ar  
    16     6    19 ar  
    17     6    20 1   
    18     7    12 2   
    19     7    20 1   
    20     7    27 1   
    21     8    21 1   
    22     8    23 1   
    23     9    18 1   
    24     9    22 2   
    25    10    19 ar  
    26    10    31 1   
    27    11    12 1   
    28    12    32 1   
    29    13    16 ar  
    30    13    38 1   
    31    14    15 ar  
    32    14    33 1   
    33    15    34 1   
    34    16    17 1   
    35    17    18 1   
    36    17    35 1   
    37    18    36 1   
    38    20    37 1   
    39    28    38 1   
    40    29    38 1   
    41    30    38 1   
@<TRIPOS>SUBSTRUCTURE
     1 A1C         1 TEMP              0 ****  ****    0 ROOT
