@<TRIPOS>MOLECULE
A1C
   32    33     1     0     0
SMALL
abcg2


@<TRIPOS>ATOM
      1 C01         10.0720    18.2080    12.1150 ca         1 A1C      -0.172500
      2 C02          9.9440    18.6940    10.8160 ca         1 A1C       0.150100
      3 C03          8.6730    18.7490    10.2340 ca         1 A1C      -0.172500
      4 C04          7.5640    18.3250    10.9350 ca         1 A1C      -0.058000
      5 C05          7.6740    17.8360    12.2420 ca         1 A1C      -0.057000
      6 C06          8.9460    17.7920    12.8100 ca         1 A1C      -0.058000
      7 C07          6.4870    17.3970    12.9670 cc         1 A1C      -0.132000
      8 C09          4.8880    16.2730    14.5270 cc         1 A1C      -0.209800
      9 C10          4.2820    17.1400    13.6480 cd         1 A1C      -0.097000
     10 C11          5.1800    17.7700    12.7690 cd         1 A1C      -0.141000
     11 C12          4.2970    15.4560    15.5750 ce         1 A1C       0.052600
     12 C13          2.9530    15.3020    15.6270 cf         1 A1C      -0.328200
     13 C14          2.2320    14.5530    16.6390 c          1 A1C       0.571100
     14 C18          5.2580    14.8290    16.5420 c3         1 A1C      -0.077900
     15 C19         12.2720    19.0870    10.5970 c3         1 A1C       0.147900
     16 O17         10.9650    19.1230    10.0590 os         1 A1C      -0.338100
     17 S08          6.5960    16.2530    14.2460 ss         1 A1C       0.216000
     18 H20         11.0330    18.1520    12.6070 ha         1 A1C       0.124500
     19 H21          8.5670    19.1190     9.2220 ha         1 A1C       0.124500
     20 H22          6.5990    18.3590    10.4460 ha         1 A1C       0.116000
     21 H23          9.0780    17.4400    13.8270 ha         1 A1C       0.116000
     22 H24          3.2200    17.3420    13.6460 ha         1 A1C       0.138000
     23 H25          4.8760    18.4970    12.0300 ha         1 A1C       0.138000
     24 H26          2.3290    15.7580    14.8670 ha         1 A1C       0.196000
     25 H1           2.8290    14.0760    17.4320 h4         1 A1C      -0.017800
     26 H29          4.7790    14.2240    17.3030 hc         1 A1C       0.054367
     27 H28          5.9600    14.1800    16.0140 hc         1 A1C       0.054367
     28 H27          5.8460    15.5980    17.0470 hc         1 A1C       0.054367
     29 H31         12.9330    19.4790     9.8280 h1         1 A1C       0.042700
     30 H30         12.3620    19.7090    11.4910 h1         1 A1C       0.042700
     31 H32         12.5830    18.0680    10.8440 h1         1 A1C       0.042700
     32 O1           1.0210    14.4390    16.6440 o          1 A1C      -0.524100
@<TRIPOS>BOND
     1     1     2 ar  
     2     1     6 ar  
     3     1    18 1   
     4     2     3 ar  
     5     2    16 1   
     6     3     4 ar  
     7     3    19 1   
     8     4     5 ar  
     9     4    20 1   
    10     5     6 ar  
    11     5     7 1   
    12     6    21 1   
    13     7    10 2   
    14     7    17 1   
    15     8     9 2   
    16     8    11 1   
    17     8    17 1   
    18     9    10 1   
    19     9    22 1   
    20    10    23 1   
    21    11    12 2   
    22    11    14 1   
    23    12    13 1   
    24    12    24 1   
    25    13    25 1   
    26    13    32 2   
    27    14    26 1   
    28    14    27 1   
    29    14    28 1   
    30    15    16 1   
    31    15    29 1   
    32    15    30 1   
    33    15    31 1   
@<TRIPOS>SUBSTRUCTURE
     1 A1C         1 TEMP              0 ****  ****    0 ROOT
