@<TRIPOS>MOLECULE
A1C
   39    41     1     0     0
SMALL
abcg2


@<TRIPOS>ATOM
      1 NE1        -23.9280   -14.0600    46.7840 na         1 A1C      -0.115700
      2 C          -27.4960   -10.6560    50.1200 c          1 A1C       0.713000
      3 CA         -26.5580   -11.1260    48.9760 c3         1 A1C       0.036500
      4 CB         -26.8370   -12.5810    48.5600 c3         1 A1C       0.000800
      5 CG         -25.8280   -13.1310    47.5980 cc         1 A1C      -0.083400
      6 CD1        -24.6340   -13.7230    47.9240 cd         1 A1C      -0.192100
      7 C52        -22.6760   -14.7870    46.7460 c3         1 A1C       0.132900
      8 C53        -22.8210   -16.2260    46.2980 ca         1 A1C      -0.105300
      9 C54        -23.9640   -16.9650    46.5990 ca         1 A1C      -0.095000
     10 C55        -24.0670   -18.2950    46.2070 ca         1 A1C      -0.114500
     11 C56        -23.0260   -18.9040    45.5110 ca         1 A1C      -0.114000
     12 C57        -21.8840   -18.1710    45.2050 ca         1 A1C      -0.114500
     13 C58        -21.7860   -16.8390    45.5940 ca         1 A1C      -0.095000
     14 CE2        -24.6770   -13.7070    45.6860 ca         1 A1C      -0.048200
     15 CZ2        -24.4080   -13.8640    44.3260 ca         1 A1C      -0.142000
     16 CH2        -25.3620   -13.4100    43.4270 ca         1 A1C      -0.104000
     17 CZ3        -26.5580   -12.8160    43.8720 ca         1 A1C      -0.166000
     18 CE3        -26.8230   -12.6630    45.2240 ca         1 A1C      -0.034000
     19 CD2        -25.8800   -13.1100    46.1590 ca         1 A1C      -0.089800
     20 N          -26.6520   -10.2360    47.8160 n8         1 A1C      -1.007200
     21 HA         -25.5500   -11.1110    49.4190 h1         1 A1C      -0.005300
     22 HB3        -27.8350   -12.6250    48.1150 hc         1 A1C       0.058700
     23 HB2        -26.8560   -13.1880    49.4640 hc         1 A1C       0.058700
     24 HD1        -24.2150   -13.9370    48.8950 h4         1 A1C       0.210000
     25 H71        -22.2520   -14.7490    47.7510 h1         1 A1C       0.057700
     26 H70        -21.9770   -14.2680    46.0860 h1         1 A1C       0.057700
     27 H72        -24.7800   -16.4960    47.1330 ha         1 A1C       0.120000
     28 H73        -24.9630   -18.8570    46.4440 ha         1 A1C       0.108500
     29 H74        -23.1080   -19.9390    45.2040 ha         1 A1C       0.105000
     30 H75        -21.0730   -18.6320    44.6550 ha         1 A1C       0.108500
     31 H76        -20.9000   -16.2660    45.3430 ha         1 A1C       0.120000
     32 HZ2        -23.4930   -14.3290    43.9830 ha         1 A1C       0.102000
     33 HH2        -25.1840   -13.5170    42.3640 ha         1 A1C       0.093000
     34 HZ3        -27.2810   -12.4740    43.1420 ha         1 A1C       0.099000
     35 HE3        -27.7430   -12.1980    45.5540 ha         1 A1C       0.135000
     36 H2         -26.6770    -9.2790    48.1470 hn         1 A1C       0.385000
     37 H          -25.8330   -10.3450    47.2280 hn         1 A1C       0.385000
     38 O          -27.6080   -11.4330    51.1020 o          1 A1C      -0.732000
     39 OXT        -28.0340    -9.5260    50.0040 o          1 A1C      -0.732000
@<TRIPOS>BOND
     1     1     6 1   
     2     1     7 1   
     3     1    14 1   
     4     2     3 1   
     5     2    38 1   
     6     2    39 1   
     7     3     4 1   
     8     3    20 1   
     9     3    21 1   
    10     4     5 1   
    11     4    22 1   
    12     4    23 1   
    13     5     6 2   
    14     5    19 1   
    15     6    24 1   
    16     7     8 1   
    17     7    25 1   
    18     7    26 1   
    19     8     9 ar  
    20     8    13 ar  
    21     9    10 ar  
    22     9    27 1   
    23    10    11 ar  
    24    10    28 1   
    25    11    12 ar  
    26    11    29 1   
    27    12    13 ar  
    28    12    30 1   
    29    13    31 1   
    30    14    15 ar  
    31    14    19 ar  
    32    15    16 ar  
    33    15    32 1   
    34    16    17 ar  
    35    16    33 1   
    36    17    18 ar  
    37    17    34 1   
    38    18    19 ar  
    39    18    35 1   
    40    20    36 1   
    41    20    37 1   
@<TRIPOS>SUBSTRUCTURE
     1 A1C         1 TEMP              0 ****  ****    0 ROOT
