@<TRIPOS>MOLECULE
A1C
   27    29     1     0     0
SMALL
abcg2


@<TRIPOS>ATOM
      1 C4           7.3450   -15.8560    16.5640 ca         1 A1C      -0.049000
      2 C5           8.6530   -16.1690    16.2230 ca         1 A1C      -0.157000
      3 C6          10.9020   -16.6120    15.4320 cc         1 A1C       0.356100
      4 C7           9.5220   -16.8130    17.1180 ca         1 A1C       0.055400
      5 C8           9.0570   -17.1450    18.3900 ca         1 A1C      -0.073000
      6 C10          5.1580   -15.4090    19.6130 c5         1 A1C      -0.027200
      7 O            4.6310   -17.4970    15.6810 o          1 A1C      -0.712500
      8 O1           3.8500   -15.4500    15.2330 o          1 A1C      -0.712500
      9 C1           4.4080   -15.9430    17.4410 ce         1 A1C      -0.091400
     10 C12          3.1940   -15.4450    18.1830 c5         1 A1C      -0.046200
     11 C11          3.6280   -15.4930    19.6530 c5         1 A1C      -0.085400
     12 C2           5.4950   -15.9070    18.2250 cf         1 A1C      -0.168400
     13 C3           6.8770   -16.2040    17.8280 ca         1 A1C       0.044200
     14 C9           7.7570   -16.8370    18.7290 ca         1 A1C      -0.118000
     15 N           10.7890   -17.0480    16.6340 nd         1 A1C      -0.534100
     16 S            9.4940   -15.8660    14.7400 ss         1 A1C      -0.003200
     17 H1           6.7080   -15.3230    15.8730 ha         1 A1C       0.155000
     18 H2          11.8100   -16.6900    14.8480 h5         1 A1C       0.037800
     19 H3           9.7140   -17.6380    19.0950 ha         1 A1C       0.111000
     20 H5           5.6220   -15.9930    20.4110 hc         1 A1C       0.024700
     21 H6           5.5150   -14.3810    19.7390 hc         1 A1C       0.024700
     22 H10          2.3010   -16.0430    17.9890 hc         1 A1C       0.052700
     23 H9           2.9570   -14.4250    17.8610 hc         1 A1C       0.052700
     24 H7           3.3290   -16.4490    20.0880 hc         1 A1C       0.025200
     25 H8           3.1750   -14.7070    20.2590 hc         1 A1C       0.025200
     26 H4           7.4000   -17.1050    19.7150 ha         1 A1C       0.106000
     27 C            4.2980   -16.3380    15.9870 c          1 A1C       0.708200
@<TRIPOS>BOND
     1     1     2 ar  
     2     1    13 ar  
     3     1    17 1   
     4     2     4 ar  
     5     2    16 1   
     6     3    15 2   
     7     3    16 1   
     8     3    18 1   
     9     4     5 ar  
    10     4    15 1   
    11     5    14 ar  
    12     5    19 1   
    13     6    11 1   
    14     6    12 1   
    15     6    20 1   
    16     6    21 1   
    17     7    27 1   
    18     8    27 1   
    19     9    10 1   
    20     9    12 2   
    21     9    27 1   
    22    10    11 1   
    23    10    22 1   
    24    10    23 1   
    25    11    24 1   
    26    11    25 1   
    27    12    13 1   
    28    13    14 ar  
    29    14    26 1   
@<TRIPOS>SUBSTRUCTURE
     1 A1C         1 TEMP              0 ****  ****    0 ROOT
