@<TRIPOS>MOLECULE
A1C
   32    34     1     0     0
SMALL
abcg2


@<TRIPOS>ATOM
      1 C4          11.1180    -7.2550    11.5990 c5         1 A1C      -0.074400
      2 C5          10.7390    -8.1170    12.8070 c5         1 A1C      -0.024400
      3 C6           9.3340    -8.6520    12.8240 ca         1 A1C      -0.008300
      4 C7           8.5590    -8.5390    14.0040 ca         1 A1C      -0.066000
      5 C8           7.2870    -9.0350    14.0750 ca         1 A1C      -0.117000
      6 C10          5.4000   -10.2060    12.9640 ca         1 A1C      -0.059000
      7 C13          7.4720    -9.8070    11.7730 ca         1 A1C       0.271000
      8 O           12.0200   -11.2720    13.9660 o          1 A1C      -0.732500
      9 O1          11.8600    -9.4050    15.1740 o          1 A1C      -0.732500
     10 C1          11.8210    -9.2050    12.8040 c5         1 A1C      -0.181700
     11 C3          12.6560    -7.2120    11.6270 c5         1 A1C      -0.080400
     12 C2          13.0940    -8.3960    12.5190 c5         1 A1C      -0.064400
     13 C14          8.7830    -9.2850    11.7360 ca         1 A1C      -0.095000
     14 C9           6.7090    -9.6800    12.9610 ca         1 A1C      -0.086000
     15 N            6.9800   -10.4140    10.6640 nb         1 A1C      -0.661000
     16 C12          5.7640   -10.8890    10.7060 ca         1 A1C       0.332900
     17 C11          4.9230   -10.8120    11.8360 ca         1 A1C      -0.192000
     18 H7          10.6640    -6.2630    11.6390 hc         1 A1C       0.024200
     19 H8          10.7740    -7.7260    10.6760 hc         1 A1C       0.024200
     20 H1          10.8840    -7.5180    13.7120 hc         1 A1C       0.072700
     21 H9           8.9910    -8.0460    14.8670 ha         1 A1C       0.131000
     22 H10          6.7100    -8.9400    14.9870 ha         1 A1C       0.103000
     23 H11          4.7910   -10.1250    13.8560 ha         1 A1C       0.106000
     24 H           11.6280    -9.8730    11.9560 hc         1 A1C       0.038700
     25 H5          13.0130    -6.2680    12.0400 hc         1 A1C       0.018700
     26 H6          13.0690    -7.2870    10.6200 hc         1 A1C       0.018700
     27 H3          13.5050    -8.0250    13.4610 hc         1 A1C       0.040700
     28 H4          13.8710    -9.0060    12.0540 hc         1 A1C       0.040700
     29 H14          9.3420    -9.3990    10.8150 ha         1 A1C       0.128000
     30 H13          5.3980   -11.3680     9.8030 h4         1 A1C       0.001100
     31 H12          3.9260   -11.2280    11.7940 ha         1 A1C       0.106000
     32 C           11.9000   -10.0370    14.0970 c          1 A1C       0.721000
@<TRIPOS>BOND
     1     1     2 1   
     2     1    11 1   
     3     1    18 1   
     4     1    19 1   
     5     2     3 1   
     6     2    10 1   
     7     2    20 1   
     8     3     4 ar  
     9     3    13 ar  
    10     4     5 ar  
    11     4    21 1   
    12     5    14 ar  
    13     5    22 1   
    14     6    14 ar  
    15     6    17 ar  
    16     6    23 1   
    17     7    13 ar  
    18     7    14 ar  
    19     7    15 ar  
    20     8    32 1   
    21     9    32 1   
    22    10    12 1   
    23    10    24 1   
    24    10    32 1   
    25    11    12 1   
    26    11    25 1   
    27    11    26 1   
    28    12    27 1   
    29    12    28 1   
    30    13    29 1   
    31    15    16 ar  
    32    16    17 ar  
    33    16    30 1   
    34    17    31 1   
@<TRIPOS>SUBSTRUCTURE
     1 A1C         1 TEMP              0 ****  ****    0 ROOT
