@<TRIPOS>MOLECULE
A1C
   47    48     1     0     0
SMALL
abcg2


@<TRIPOS>ATOM
      1 C02        258.5050   350.6680   -58.6730 ca         1 A1C       0.605900
      2 C03        258.0630   351.1280   -59.9300 ca         1 A1C      -0.223000
      3 C04        258.9000   351.0250   -61.0190 ca         1 A1C       0.000700
      4 C05        260.1690   350.4620   -60.8210 ca         1 A1C      -0.204000
      5 C06        260.5120   350.0330   -59.5570 ca         1 A1C       0.386300
      6 C07        258.4820   351.4990   -62.3760 c3         1 A1C      -0.053800
      7 C08        261.8370   349.3730   -59.3090 c3         1 A1C       0.114300
      8 C11        263.6220   349.5820   -57.7690 ca         1 A1C       0.138100
      9 C12        264.1830   350.2860   -56.7020 ca         1 A1C       0.092000
     10 C13        265.2850   349.7860   -56.0450 ca         1 A1C       0.168000
     11 C14        265.8730   348.5950   -56.4250 ca         1 A1C      -0.168000
     12 C15        265.3360   347.8880   -57.4920 ca         1 A1C      -0.028300
     13 C16        264.2170   348.3870   -58.1580 ca         1 A1C      -0.198000
     14 C17        265.9840   346.6170   -57.9630 c3         1 A1C      -0.035100
     15 C18        266.9060   346.8810   -59.1550 c3         1 A1C       0.169800
     16 C20        268.0470   345.8370   -60.9850 c3         1 A1C       0.169800
     17 C21        268.5870   344.5540   -61.5940 c3         1 A1C      -0.091100
     18 C22        268.6780   345.3280   -58.7200 c3         1 A1C       0.149100
     19 F12        263.6410   351.4460   -56.3120 f          1 A1C      -0.150000
     20 F13        265.7810   350.4760   -55.0120 f          1 A1C      -0.161000
     21 N01        259.7040   350.1280   -58.5000 nb         1 A1C      -0.729000
     22 N02        257.6780   350.7150   -57.5910 nv         1 A1C      -1.058900
     23 N19        267.5930   345.6850   -59.6110 n3         1 A1C      -0.719600
     24 O09        262.5360   350.1300   -58.3310 os         1 A1C      -0.309100
     25 H1         257.0720   351.5540   -60.0310 ha         1 A1C       0.120000
     26 H2         260.8660   350.3640   -61.6440 ha         1 A1C       0.122000
     27 H3         258.5750   350.6990   -63.1110 hc         1 A1C       0.048033
     28 H4         257.4510   351.8490   -62.3810 hc         1 A1C       0.048033
     29 H5         259.1190   352.3180   -62.7140 hc         1 A1C       0.048033
     30 H6         261.6680   348.3530   -58.9480 h1         1 A1C       0.049700
     31 H7         262.4180   349.3120   -60.2340 h1         1 A1C       0.049700
     32 H8         266.7400   348.2290   -55.8890 ha         1 A1C       0.135000
     33 H9         263.8180   347.8220   -58.9900 ha         1 A1C       0.124000
     34 H10        265.2230   345.8940   -58.2610 hc         1 A1C       0.058700
     35 H11        266.5410   346.1730   -57.1360 hc         1 A1C       0.058700
     36 H12        267.6150   347.6890   -58.9030 h1         1 A1C       0.033700
     37 H13        266.2930   347.2590   -59.9770 h1         1 A1C       0.033700
     38 H14        268.8100   346.6300   -61.0760 h1         1 A1C       0.027700
     39 H15        267.1910   346.1670   -61.5790 h1         1 A1C       0.027700
     40 H16        268.7640   344.6970   -62.6600 hc         1 A1C       0.037700
     41 H17        269.5320   344.2430   -61.1500 hc         1 A1C       0.037700
     42 H18        267.8720   343.7380   -61.4780 hc         1 A1C       0.037700
     43 H19        268.3160   345.2050   -57.7000 h1         1 A1C       0.030367
     44 H20        269.1210   344.3760   -59.0100 h1         1 A1C       0.030367
     45 H21        269.4810   346.0820   -58.7000 h1         1 A1C       0.030367
     46 H22        258.1110   350.6120   -56.6880 hn         1 A1C       0.474500
     47 H23        256.9050   351.3590   -57.6140 hn         1 A1C       0.474500
@<TRIPOS>BOND
     1     1     2 ar  
     2     1    21 ar  
     3     1    22 1   
     4     2     3 ar  
     5     2    25 1   
     6     3     4 ar  
     7     3     6 1   
     8     4     5 ar  
     9     4    26 1   
    10     5     7 1   
    11     5    21 ar  
    12     6    27 1   
    13     6    28 1   
    14     6    29 1   
    15     7    24 1   
    16     7    30 1   
    17     7    31 1   
    18     8     9 ar  
    19     8    13 ar  
    20     8    24 1   
    21     9    10 ar  
    22     9    19 1   
    23    10    11 ar  
    24    10    20 1   
    25    11    12 ar  
    26    11    32 1   
    27    12    13 ar  
    28    12    14 1   
    29    13    33 1   
    30    14    15 1   
    31    14    34 1   
    32    14    35 1   
    33    15    23 1   
    34    15    36 1   
    35    15    37 1   
    36    16    17 1   
    37    16    23 1   
    38    16    38 1   
    39    16    39 1   
    40    17    40 1   
    41    17    41 1   
    42    17    42 1   
    43    18    23 1   
    44    18    43 1   
    45    18    44 1   
    46    18    45 1   
    47    22    46 1   
    48    22    47 1   
@<TRIPOS>SUBSTRUCTURE
     1 A1C         1 TEMP              0 ****  ****    0 ROOT
