@<TRIPOS>MOLECULE
A1C
   28    29     1     0     0
SMALL
abcg2


@<TRIPOS>ATOM
      1 C14        -20.8200    14.5150    44.4740 ca         1 A1C      -0.079000
      2 C5         -17.5810    14.8140    39.2550 cc         1 A1C       0.193500
      3 C6         -18.3030    15.4780    38.2460 cc         1 A1C      -0.170000
      4 C11        -19.7900    16.1560    42.4420 ca         1 A1C      -0.094300
      5 C7         -19.0530    16.4010    38.9290 cd         1 A1C      -0.185000
      6 C10        -19.2600    17.0360    41.3460 c3         1 A1C       0.137900
      7 C12        -19.0760    15.9060    43.6140 ca         1 A1C       0.151500
      8 C13        -19.5760    15.1020    44.6260 ca         1 A1C      -0.105500
      9 C3         -16.6130    13.7130    39.1370 c          1 A1C       0.526600
     10 C1         -15.5120    12.3100    37.6050 c3         1 A1C       0.153900
     11 C15        -21.5580    14.7250    43.3210 ca         1 A1C      -0.105500
     12 C16        -21.0340    15.5340    42.3270 ca         1 A1C       0.151500
     13 N8         -18.7510    16.2510    40.2370 na         1 A1C       0.143800
     14 N9         -17.8660    15.3020    40.4530 nd         1 A1C      -0.453800
     15 O2         -16.4230    13.3760    37.8700 os         1 A1C      -0.439100
     16 O4         -16.0650    13.1840    40.0710 o          1 A1C      -0.466000
     17 CL17       -21.9710    15.7700    40.8910 cl         1 A1C      -0.187500
     18 CL18       -17.5060    16.6000    43.8460 cl         1 A1C      -0.187500
     19 H1         -21.2180    13.8870    45.2600 ha         1 A1C       0.126000
     20 H2         -18.2890    15.3040    37.1840 ha         1 A1C       0.158000
     21 H3         -19.7660    17.1360    38.5930 h4         1 A1C       0.158000
     22 H4         -18.4670    17.6830    41.7140 h1         1 A1C       0.078700
     23 H5         -20.0440    17.6820    40.9560 h1         1 A1C       0.078700
     24 H6         -18.9970    14.9350    45.5230 ha         1 A1C       0.136500
     25 H7         -15.5010    12.1870    36.5270 h1         1 A1C       0.047700
     26 H8         -14.5070    12.5490    37.9520 h1         1 A1C       0.047700
     27 H9         -15.8400    11.3810    38.0720 h1         1 A1C       0.047700
     28 H10        -22.5280    14.2650    43.1950 ha         1 A1C       0.136500
@<TRIPOS>BOND
     1     1     8 ar  
     2     1    11 ar  
     3     1    19 1   
     4     2     3 1   
     5     2     9 1   
     6     2    14 2   
     7     3     5 2   
     8     3    20 1   
     9     4     6 1   
    10     4     7 ar  
    11     4    12 ar  
    12     5    13 1   
    13     5    21 1   
    14     6    13 1   
    15     6    22 1   
    16     6    23 1   
    17     7     8 ar  
    18     7    18 1   
    19     8    24 1   
    20     9    15 1   
    21     9    16 2   
    22    10    15 1   
    23    10    25 1   
    24    10    26 1   
    25    10    27 1   
    26    11    12 ar  
    27    11    28 1   
    28    12    17 1   
    29    13    14 1   
@<TRIPOS>SUBSTRUCTURE
     1 A1C         1 TEMP              0 ****  ****    0 ROOT
