@<TRIPOS>MOLECULE
A1C
   45    47     1     0     0
SMALL
abcg2


@<TRIPOS>ATOM
      1 C14         -6.3670    -3.5790   -37.5720 ca         1 A1C      -0.167000
      2 C11         -8.9780    -2.8050   -38.2140 ca         1 A1C       0.138100
      3 C12         -8.4610    -4.0140   -38.6760 ca         1 A1C       0.089000
      4 C13         -7.1740    -4.3840   -38.3520 ca         1 A1C       0.169000
      5 C15         -6.8670    -2.3700   -37.1060 ca         1 A1C      -0.026300
      6 C16         -8.1700    -1.9920   -37.4260 ca         1 A1C      -0.193000
      7 C17         -6.0280    -1.4840   -36.2280 c3         1 A1C      -0.036100
      8 C18         -6.2010    -1.8220   -34.7480 c3         1 A1C       0.169800
      9 C22         -3.9610    -1.1070   -33.9050 cy         1 A1C       0.144800
     10 C02        -14.0320     0.1780   -38.8150 ca         1 A1C       0.605900
     11 C03        -14.7140    -0.7390   -39.6360 ca         1 A1C      -0.228000
     12 C04        -14.0900    -1.9150   -39.9910 ca         1 A1C      -0.001300
     13 C05        -12.7930    -2.1540   -39.5140 ca         1 A1C      -0.187000
     14 C06        -12.2040    -1.1930   -38.7200 ca         1 A1C       0.386300
     15 C08        -10.8170    -1.3210   -38.1540 c3         1 A1C       0.109300
     16 C23         -3.9750    -0.7990   -32.4010 cy         1 A1C      -0.106400
     17 C24         -5.4720    -1.1310   -32.4690 cy         1 A1C       0.144800
     18 F12         -9.2190    -4.8080   -39.4410 f          1 A1C      -0.152000
     19 F13         -6.7120    -5.5510   -38.8150 f          1 A1C      -0.161000
     20 N01        -12.8010    -0.0510   -38.3750 nb         1 A1C      -0.762000
     21 N02        -14.6370     1.3290   -38.4060 nv         1 A1C      -1.058900
     22 N21         -5.4190    -0.9420   -33.9210 nq         1 A1C      -0.718600
     23 O09        -10.2360    -2.5310   -38.5870 os         1 A1C      -0.329100
     24 H1          -5.3570    -3.8950   -37.3390 ha         1 A1C       0.136000
     25 H2          -8.5420    -1.0460   -37.0530 ha         1 A1C       0.129000
     26 H3          -4.9760    -1.5840   -36.5050 hc         1 A1C       0.059200
     27 H4          -6.3010    -0.4380   -36.3850 hc         1 A1C       0.059200
     28 H5          -7.2540    -1.7100   -34.4720 h1         1 A1C       0.035700
     29 H6          -5.9400    -2.8820   -34.5840 h1         1 A1C       0.035700
     30 H7          -3.6450    -2.1410   -34.1040 h1         1 A1C       0.045950
     31 H8          -3.4020    -0.4390   -34.5640 h1         1 A1C       0.045950
     32 H9         -15.7170    -0.5160   -39.9820 ha         1 A1C       0.120000
     33 H10        -12.2780    -3.0690   -39.7730 ha         1 A1C       0.143000
     34 H11        -14.2910    -2.9260   -41.8660 hc         1 A1C       0.048367
     35 H12        -14.6790    -3.9220   -40.4760 hc         1 A1C       0.048367
     36 H13        -15.8180    -2.6850   -41.0200 hc         1 A1C       0.048367
     37 H14        -10.2210    -0.4620   -38.4810 h1         1 A1C       0.058700
     38 H15        -10.8680    -1.2860   -37.0600 h1         1 A1C       0.058700
     39 H16         -3.3550    -1.4190   -31.7580 hc         1 A1C       0.058200
     40 H17         -3.7840     0.2510   -32.1830 hc         1 A1C       0.058200
     41 H18         -6.1740    -0.4820   -31.9390 h1         1 A1C       0.045950
     42 H19         -5.6700    -2.1710   -32.1770 h1         1 A1C       0.045950
     43 H20        -14.0330     2.0530   -38.0540 hn         1 A1C       0.471500
     44 H21        -15.4190     1.6640   -38.9420 hn         1 A1C       0.471500
     45 C07        -14.7630    -2.9140   -40.8820 c3         1 A1C      -0.054800
@<TRIPOS>BOND
     1     1     4 ar  
     2     1     5 ar  
     3     1    24 1   
     4     2     3 ar  
     5     2     6 ar  
     6     2    23 1   
     7     3     4 ar  
     8     3    18 1   
     9     4    19 1   
    10     5     6 ar  
    11     5     7 1   
    12     6    25 1   
    13     7     8 1   
    14     7    26 1   
    15     7    27 1   
    16     8    22 1   
    17     8    28 1   
    18     8    29 1   
    19     9    16 1   
    20     9    22 1   
    21     9    30 1   
    22     9    31 1   
    23    10    11 ar  
    24    10    20 ar  
    25    10    21 1   
    26    11    12 ar  
    27    11    32 1   
    28    12    13 ar  
    29    12    45 1   
    30    13    14 ar  
    31    13    33 1   
    32    14    15 1   
    33    14    20 ar  
    34    15    23 1   
    35    15    37 1   
    36    15    38 1   
    37    16    17 1   
    38    16    39 1   
    39    16    40 1   
    40    17    22 1   
    41    17    41 1   
    42    17    42 1   
    43    21    43 1   
    44    21    44 1   
    45    34    45 1   
    46    35    45 1   
    47    36    45 1   
@<TRIPOS>SUBSTRUCTURE
     1 A1C         1 TEMP              0 ****  ****    0 ROOT
