@<TRIPOS>MOLECULE
A1C
   34    35     1     0     0
SMALL
abcg2


@<TRIPOS>ATOM
      1 O4          22.0380    27.7350    57.7220 o          1 A1C      -0.586000
      2 C6          21.5470    31.2360    57.7880 cc         1 A1C       0.025600
      3 C1          22.6110    33.0360    56.5490 c5         1 A1C       0.334700
      4 C2          23.2770    30.7060    56.2130 c          1 A1C       0.618000
      5 C8          21.3380    33.7000    55.9810 c5         1 A1C       0.121300
      6 C3          21.1930    34.9940    56.8020 c5         1 A1C      -0.139700
      7 C4          22.1270    28.9290    57.5040 c          1 A1C       0.584200
      8 C9          22.4880    35.0400    57.6170 c5         1 A1C       0.179600
      9 C5          21.3300    29.9580    58.1420 cd         1 A1C      -0.287400
     10 C7          20.3110    29.5630    59.1600 c3         1 A1C      -0.029900
     11 N1          22.4700    31.6230    56.8460 n          1 A1C      -0.297000
     12 N3          23.0460    29.4070    56.5840 ns         1 A1C      -0.475500
     13 O2          21.5550    33.8920    54.6050 oh         1 A1C      -0.742000
     14 O1          22.9330    33.6980    57.7350 os         1 A1C      -0.438000
     15 OP1         17.5170    34.1460    59.3500 o          1 A1C      -0.918500
     16 OP2         19.2690    32.8090    60.6890 o          1 A1C      -0.918500
     17 P           18.9130    34.1020    59.9620 p5         1 A1C       1.266900
     18 H6          20.9830    32.0440    58.2380 h4         1 A1C       0.310000
     19 H1          23.4100    33.1290    55.8070 h2         1 A1C       0.074700
     20 H2          20.4650    33.0530    56.1370 h1         1 A1C       0.081700
     21 H3          21.1440    35.8520    56.1250 hc         1 A1C       0.024700
     22 H4          23.2470    35.6450    57.1070 h1         1 A1C       0.046200
     23 H4'         22.3570    35.4420    58.6230 h1         1 A1C       0.046200
     24 H5          19.8780    36.0070    58.1450 h1         1 A1C       0.002200
     25 H5'         19.0640    34.9410    57.0040 h1         1 A1C       0.002200
     26 H73         19.8190    30.4420    59.5740 hc         1 A1C       0.057367
     27 H71         19.5450    28.9170    58.7270 hc         1 A1C       0.057367
     28 H72         20.7650    29.0110    59.9850 hc         1 A1C       0.057367
     29 H9          23.6280    28.7180    56.1240 hn         1 A1C       0.311500
     30 H8          20.7500    34.2550    54.2220 ho         1 A1C       0.498000
     31 OP3         19.3340    35.3840    60.6700 o          1 A1C      -0.918500
     32 C10         19.9410    35.0200    57.6660 c3         1 A1C       0.255600
     33 O5          19.9770    33.9960    58.6080 os         1 A1C      -0.599400
     34 O3          24.1210    30.9990    55.3910 o          1 A1C      -0.606000
@<TRIPOS>BOND
     1     1     7 2   
     2     2     9 2   
     3     2    11 1   
     4     2    18 1   
     5     3     5 1   
     6     3    11 1   
     7     3    14 1   
     8     3    19 1   
     9     4    11 1   
    10     4    12 1   
    11     4    34 2   
    12     5     6 1   
    13     5    13 1   
    14     5    20 1   
    15     6     8 1   
    16     6    21 1   
    17     6    32 1   
    18     7     9 1   
    19     7    12 1   
    20     8    14 1   
    21     8    22 1   
    22     8    23 1   
    23     9    10 1   
    24    10    26 1   
    25    10    27 1   
    26    10    28 1   
    27    12    29 1   
    28    13    30 1   
    29    15    17 1   
    30    16    17 1   
    31    17    31 1   
    32    17    33 1   
    33    24    32 1   
    34    25    32 1   
    35    32    33 1   
@<TRIPOS>SUBSTRUCTURE
     1 A1C         1 TEMP              0 ****  ****    0 ROOT
