@<TRIPOS>MOLECULE
A1C
   22    23     1     0     0
SMALL
abcg2


@<TRIPOS>ATOM
      1 C10        -18.6580   -23.6970    14.4660 ca         1 A1C      -0.116000
      2 N12        -20.4260   -25.5120    14.6230 na         1 A1C      -0.311600
      3 C01        -23.0200   -27.1130    13.4190 c3         1 A1C      -0.086100
      4 C02        -22.6410   -26.6690    14.8260 c3         1 A1C       0.155000
      5 C04        -21.7780   -25.4400    14.8020 cc         1 A1C       0.370800
      6 C06        -21.0790   -23.4050    14.7730 ca         1 A1C       0.066400
      7 C07        -20.9420   -22.0170    14.8040 ca         1 A1C      -0.048000
      8 C08        -19.6660   -21.4860    14.6640 ca         1 A1C      -0.135000
      9 C09        -18.5420   -22.3130    14.4980 ca         1 A1C      -0.093000
     10 C11        -19.9390   -24.2220    14.6040 ca         1 A1C      -0.075200
     11 N05        -22.2110   -24.2020    14.8980 nd         1 A1C      -0.574100
     12 O03        -21.9550   -27.7610    15.4450 oh         1 A1C      -0.669000
     13 H1         -17.7930   -24.3350    14.3390 ha         1 A1C       0.117000
     14 H2         -19.8930   -26.3660    14.5590 hn         1 A1C       0.365000
     15 H4         -23.5420   -26.3090    12.8990 hc         1 A1C       0.052700
     16 H5         -22.1250   -27.3750    12.8520 hc         1 A1C       0.052700
     17 H6         -23.5460   -26.4180    15.3860 h1         1 A1C       0.068700
     18 H7         -21.8060   -21.3770    14.9330 ha         1 A1C       0.128000
     19 H8         -19.5310   -20.4120    14.6830 ha         1 A1C       0.114000
     20 H9         -17.5640   -21.8610    14.3910 ha         1 A1C       0.113000
     21 H11        -21.8240   -27.5550    16.3800 ho         1 A1C       0.450000
     22 H3         -23.6750   -27.9830    13.4730 hc         1 A1C       0.052700
@<TRIPOS>BOND
     1     1     9 ar  
     2     1    10 ar  
     3     1    13 1   
     4     2     5 1   
     5     2    10 1   
     6     2    14 1   
     7     3     4 1   
     8     3    15 1   
     9     3    16 1   
    10     3    22 1   
    11     4     5 1   
    12     4    12 1   
    13     4    17 1   
    14     5    11 2   
    15     6     7 ar  
    16     6    10 ar  
    17     6    11 1   
    18     7     8 ar  
    19     7    18 1   
    20     8     9 ar  
    21     8    19 1   
    22     9    20 1   
    23    12    21 1   
@<TRIPOS>SUBSTRUCTURE
     1 A1C         1 TEMP              0 ****  ****    0 ROOT
