@<TRIPOS>MOLECULE
A1C
   19    20     1     0     0
SMALL
abcg2


@<TRIPOS>ATOM
      1 C10        -21.5550   -25.9340    14.0430 ca         1 A1C      -0.229600
      2 C01        -22.7860   -29.3620    11.9390 c3         1 A1C      -0.125400
      3 C02        -22.2480   -28.1570    12.6170 cc         1 A1C       0.668600
      4 C04        -20.7090   -26.5330    13.0950 ca         1 A1C       0.200400
      5 C05        -19.4490   -25.9720    12.8610 ca         1 A1C      -0.098000
      6 C06        -19.0480   -24.8470    13.5540 ca         1 A1C      -0.045000
      7 C07        -19.9060   -24.2670    14.4930 ca         1 A1C      -0.037900
      8 C09        -21.1550   -24.7940    14.7470 ca         1 A1C      -0.006000
      9 C11        -22.8640   -26.5230    14.2800 c          1 A1C       0.684700
     10 N03        -21.0940   -27.6640    12.3880 nd         1 A1C      -0.641100
     11 O12        -23.7100   -26.1440    15.0500 o          1 A1C      -0.465000
     12 O13        -23.1420   -27.6440    13.5210 os         1 A1C      -0.475700
     13 BR08       -19.3280   -22.7120    15.4380 br         1 A1C      -0.087100
     14 H1         -22.0620   -29.7350    11.2200 hc         1 A1C       0.076367
     15 H2         -23.0040   -30.1360    12.6790 hc         1 A1C       0.076367
     16 H3         -23.7220   -29.1180    11.4320 hc         1 A1C       0.076367
     17 H4         -18.7960   -26.4330    12.1320 ha         1 A1C       0.142000
     18 H5         -18.0740   -24.4150    13.3720 ha         1 A1C       0.137000
     19 H6         -21.8220   -24.3490    15.4710 ha         1 A1C       0.153000
@<TRIPOS>BOND
     1     1     4 ar  
     2     1     8 ar  
     3     1     9 1   
     4     2     3 1   
     5     2    14 1   
     6     2    15 1   
     7     2    16 1   
     8     3    10 2   
     9     3    12 1   
    10     4     5 ar  
    11     4    10 1   
    12     5     6 ar  
    13     5    17 1   
    14     6     7 ar  
    15     6    18 1   
    16     7     8 ar  
    17     7    13 1   
    18     8    19 1   
    19     9    11 2   
    20     9    12 1   
@<TRIPOS>SUBSTRUCTURE
     1 A1C         1 TEMP              0 ****  ****    0 ROOT
