@<TRIPOS>MOLECULE
A1C
   22    22     1     0     0
SMALL
abcg2


@<TRIPOS>ATOM
      1 C10        -20.1190   -21.6680    14.9690 c3         1 A1C       0.354300
      2 C02        -21.4950   -28.8840    18.3810 c          1 A1C       0.611100
      3 C04        -21.4630   -27.5490    17.6530 c3         1 A1C      -0.054400
      4 C06        -19.8970   -25.6030    16.4640 ca         1 A1C       0.468300
      5 C07        -18.7110   -24.9910    16.0250 ca         1 A1C      -0.156000
      6 C08        -18.7800   -23.7120    15.5230 ca         1 A1C      -0.010000
      7 C09        -20.0230   -23.0750    15.4650 ca         1 A1C      -0.266300
      8 C14        -21.1410   -23.7620    15.9100 ca         1 A1C       0.407900
      9 F11        -19.6170   -20.7780    15.8650 f          1 A1C      -0.111333
     10 F12        -21.3870   -21.2870    14.7200 f          1 A1C      -0.111333
     11 F13        -19.4170   -21.4800    13.8270 f          1 A1C      -0.111333
     12 N01        -22.4390   -28.9850    19.3290 nt         1 A1C      -0.603000
     13 N15        -21.0840   -25.0030    16.4010 nb         1 A1C      -0.701000
     14 O03        -20.7260   -29.7980    18.0950 o          1 A1C      -0.591100
     15 H1         -21.8060   -26.7340    18.2850 h1         1 A1C       0.093700
     16 H2         -22.1170   -27.6090    16.7830 h1         1 A1C       0.093700
     17 H3         -17.7670   -25.5150    16.0870 ha         1 A1C       0.143000
     18 H4         -17.8840   -23.2100    15.1800 ha         1 A1C       0.137000
     19 H5         -22.1220   -23.3060    15.8730 h4         1 A1C       0.037100
     20 H6         -22.5630   -29.8600    19.8150 hn         1 A1C       0.320000
     21 H7         -23.0550   -28.2200    19.5520 hn         1 A1C       0.320000
     22 S05        -19.7580   -27.2340    17.1130 ss         1 A1C      -0.269300
@<TRIPOS>BOND
     1     1     7 1   
     2     1     9 1   
     3     1    10 1   
     4     1    11 1   
     5     2     3 1   
     6     2    12 1   
     7     2    14 2   
     8     3    15 1   
     9     3    16 1   
    10     3    22 1   
    11     4     5 ar  
    12     4    13 ar  
    13     4    22 1   
    14     5     6 ar  
    15     5    17 1   
    16     6     7 ar  
    17     6    18 1   
    18     7     8 ar  
    19     8    13 ar  
    20     8    19 1   
    21    12    20 1   
    22    12    21 1   
@<TRIPOS>SUBSTRUCTURE
     1 A1C         1 TEMP              0 ****  ****    0 ROOT
