@<TRIPOS>MOLECULE
A1C
   20    20     1     0     0
SMALL
abcg2


@<TRIPOS>ATOM
      1 C10        -19.6170   -25.2540    13.5730 ca         1 A1C      -0.035000
      2 C02        -23.6710   -28.0150    13.6160 c          1 A1C       0.643100
      3 C05        -21.6860   -26.5070    13.6650 ca         1 A1C       0.035000
      4 C06        -22.2220   -25.5080    14.4910 ca         1 A1C      -0.184000
      5 C07        -21.4690   -24.4030    14.8550 ca         1 A1C      -0.075000
      6 C08        -20.1680   -24.2870    14.3900 ca         1 A1C      -0.059900
      7 C11        -20.3540   -26.3760    13.1940 ca         1 A1C      -0.201600
      8 C12        -19.6600   -27.3990    12.2900 c          1 A1C       0.720600
      9 N01        -24.0370   -29.2210    13.0760 nt         1 A1C      -0.604000
     10 N04        -22.4030   -27.6300    13.2720 ns         1 A1C      -0.178000
     11 O03        -24.4240   -27.3890    14.3640 o          1 A1C      -0.678100
     12 O13        -18.4870   -27.1510    11.9390 o          1 A1C      -0.711000
     13 O14        -20.3160   -28.4330    11.9550 o          1 A1C      -0.711000
     14 BR09       -19.1160   -22.7590    14.8940 br         1 A1C      -0.179100
     15 H1         -18.6050   -25.1690    13.2070 ha         1 A1C       0.148000
     16 H2         -23.2340   -25.6090    14.8450 ha         1 A1C       0.139000
     17 H3         -21.9000   -23.6440    15.4930 ha         1 A1C       0.105000
     18 H4         -25.0190   -29.4400    13.1200 hn         1 A1C       0.299500
     19 H5         -23.5360   -29.5920    12.2840 hn         1 A1C       0.299500
     20 H6         -21.8220   -28.2360    12.6710 hn         1 A1C       0.227000
@<TRIPOS>BOND
     1     1     6 ar  
     2     1     7 ar  
     3     1    15 1   
     4     2     9 1   
     5     2    10 1   
     6     2    11 2   
     7     3     4 ar  
     8     3     7 ar  
     9     3    10 1   
    10     4     5 ar  
    11     4    16 1   
    12     5     6 ar  
    13     5    17 1   
    14     6    14 1   
    15     7     8 1   
    16     8    12 1   
    17     8    13 1   
    18     9    18 1   
    19     9    19 1   
    20    10    20 1   
@<TRIPOS>SUBSTRUCTURE
     1 A1C         1 TEMP              0 ****  ****    0 ROOT
