@<TRIPOS>MOLECULE
A1C
   23    24     1     0     0
SMALL
abcg2


@<TRIPOS>ATOM
      1 C10        -19.7280   -21.6160    15.0410 ca         1 A1C      -0.130000
      2 C01        -21.6980   -27.6130    15.5990 c3         1 A1C      -0.054100
      3 C02        -20.8190   -26.4170    15.2930 c6         1 A1C      -0.049000
      4 C03        -20.2100   -26.5610    13.8440 c          1 A1C       0.716000
      5 C07        -21.0340   -24.0600    15.2270 ca         1 A1C       0.133100
      6 C08        -21.6680   -22.9880    14.6190 ca         1 A1C      -0.107000
      7 C09        -21.0150   -21.7620    14.5300 ca         1 A1C      -0.128000
      8 C11        -19.0910   -22.6920    15.6500 ca         1 A1C      -0.142000
      9 C12        -19.7470   -23.9150    15.7520 ca         1 A1C      -0.060000
     10 C14        -19.6820   -26.2760    16.3070 c          1 A1C       0.585000
     11 N13        -19.1900   -25.0140    16.4140 ns         1 A1C      -0.146000
     12 O04        -19.0530   -27.0360    13.7900 o          1 A1C      -0.691500
     13 O05        -20.9510   -26.2220    12.9010 o          1 A1C      -0.691500
     14 O06        -21.6780   -25.2550    15.3720 os         1 A1C      -0.340100
     15 O15        -19.2360   -27.2100    16.9610 o          1 A1C      -0.571000
     16 H1         -19.2170   -20.6640    14.9690 ha         1 A1C       0.094000
     17 H2         -22.1230   -27.5300    16.6000 hc         1 A1C       0.040033
     18 H3         -22.5060   -27.6570    14.8700 hc         1 A1C       0.040033
     19 H4         -21.1160   -28.5310    15.5400 hc         1 A1C       0.040033
     20 H5         -22.6650   -23.1260    14.2210 ha         1 A1C       0.124000
     21 H6         -21.5090   -20.9250    14.0540 ha         1 A1C       0.096000
     22 H7         -18.0940   -22.5890    16.0620 ha         1 A1C       0.101000
     23 H8         -18.3850   -24.8760    17.0100 hn         1 A1C       0.139000
@<TRIPOS>BOND
     1     1     7 ar  
     2     1     8 ar  
     3     1    16 1   
     4     2     3 1   
     5     2    17 1   
     6     2    18 1   
     7     2    19 1   
     8     3     4 1   
     9     3    10 1   
    10     3    14 1   
    11     4    12 1   
    12     4    13 1   
    13     5     6 ar  
    14     5     9 ar  
    15     5    14 1   
    16     6     7 ar  
    17     6    20 1   
    18     7    21 1   
    19     8     9 ar  
    20     8    22 1   
    21     9    11 1   
    22    10    11 1   
    23    10    15 2   
    24    11    23 1   
@<TRIPOS>SUBSTRUCTURE
     1 A1C         1 TEMP              0 ****  ****    0 ROOT
