@<TRIPOS>MOLECULE
A1C
   19    20     1     0     0
SMALL
abcg2


@<TRIPOS>ATOM
      1 C01        -19.1970   -21.6200    14.9000 ca         1 A1C      -0.132000
      2 C02        -18.7770   -22.9390    14.7830 ca         1 A1C      -0.075000
      3 C03        -19.6970   -23.9830    14.7730 ca         1 A1C      -0.153000
      4 C04        -21.0630   -23.7060    14.8610 ca         1 A1C       0.305000
      5 C06        -22.0350   -25.9440    14.3170 cc         1 A1C       0.681300
      6 C09        -21.7720   -28.0150    13.1610 cc         1 A1C       0.372300
      7 C11        -21.4860   -22.3780    14.9910 ca         1 A1C      -0.153000
      8 C12        -20.5590   -21.3480    15.0140 ca         1 A1C      -0.075000
      9 N05        -22.0490   -24.7010    14.8610 nu         1 A1C      -0.929900
     10 N07        -23.0610   -26.7550    14.4610 nd         1 A1C      -0.423000
     11 N08        -22.8980   -27.9330    13.7890 nd         1 A1C      -0.281000
     12 S10        -20.7630   -26.6110    13.3250 ss         1 A1C      -0.310800
     13 H1         -18.4750   -20.8140    14.9090 ha         1 A1C       0.119000
     14 H2         -17.7220   -23.1700    14.7130 ha         1 A1C       0.118000
     15 H3         -19.3370   -25.0000    14.7330 ha         1 A1C       0.121500
     16 H4         -21.4590   -28.8740    12.5870 h5         1 A1C       0.061100
     17 H5         -22.5450   -22.1640    15.0680 ha         1 A1C       0.121500
     18 H6         -20.9040   -20.3260    15.1130 ha         1 A1C       0.118000
     19 H7         -22.9570   -24.4280    15.2130 hn         1 A1C       0.516000
@<TRIPOS>BOND
     1     1     2 ar  
     2     1     8 ar  
     3     1    13 1   
     4     2     3 ar  
     5     2    14 1   
     6     3     4 ar  
     7     3    15 1   
     8     4     7 ar  
     9     4     9 1   
    10     5     9 1   
    11     5    10 2   
    12     5    12 1   
    13     6    11 2   
    14     6    12 1   
    15     6    16 1   
    16     7     8 ar  
    17     7    17 1   
    18     8    18 1   
    19     9    19 1   
    20    10    11 1   
@<TRIPOS>SUBSTRUCTURE
     1 A1C         1 TEMP              0 ****  ****    0 ROOT
