@<TRIPOS>MOLECULE
A1C
   53    56     1     0     0
SMALL
abcg2


@<TRIPOS>ATOM
      1 O1          93.7530    35.6200    29.7330 o          1 A1C      -0.600100
      2 C2          94.6920    40.2710    33.4190 cc         1 A1C       0.393900
      3 C3          91.6930    41.8770    32.5240 c3         1 A1C       0.098600
      4 C4          92.1050    43.2270    31.9330 c3         1 A1C      -0.056100
      5 C5          90.9020    44.1070    31.7670 ca         1 A1C      -0.046300
      6 C6          90.1970    44.1500    30.5700 ca         1 A1C      -0.160000
      7 C7          89.0700    44.9520    30.4760 ca         1 A1C       0.335900
      8 C8          89.2820    45.6510    32.6230 ca         1 A1C       0.335900
      9 C9          90.4190    44.8820    32.8170 ca         1 A1C      -0.160000
     10 C10         93.1150    39.9220    31.8650 ca         1 A1C       0.394500
     11 C12         94.1390    37.7830    30.6100 ca         1 A1C      -0.244600
     12 C13         94.5250    36.5620    29.8340 c          1 A1C       0.627700
     13 C15         97.5630    35.9040    27.8560 c          1 A1C       0.594100
     14 C16         97.6430    33.6240    26.8620 c5         1 A1C       0.099000
     15 C17         98.5820    33.0880    25.7880 c5         1 A1C      -0.093900
     16 N1          93.7660    41.1840    33.5670 nd         1 A1C      -0.517100
     17 N2          92.8120    40.9760    32.6470 na         1 A1C      -0.022100
     18 N3          88.6110    45.6940    31.4770 nb         1 A1C      -0.663000
     19 N4          92.3900    39.4390    30.8610 nb         1 A1C      -0.680000
     20 C11         92.9070    38.3860    30.2710 ca         1 A1C       0.424900
     21 N5          95.7230    36.6030    29.2440 ns         1 A1C      -0.487900
     22 C14         96.2220    35.5120    28.4560 c3         1 A1C       0.021000
     23 O2          98.0420    37.0170    28.0430 o          1 A1C      -0.615100
     24 N6          98.1660    34.9620    27.1260 n          1 A1C      -0.411800
     25 C18         99.9050    33.7800    26.1010 c5         1 A1C      -0.093900
     26 C19         99.4760    35.1810    26.5200 c5         1 A1C       0.099000
     27 C20         94.8550    38.3070    31.6700 ca         1 A1C       0.255000
     28 C21         94.3410    39.4180    32.3330 ca         1 A1C      -0.281900
     29 H5          91.2440    42.0080    33.5090 h1         1 A1C       0.076700
     30 H4          90.9560    41.3900    31.8870 h1         1 A1C       0.076700
     31 H7          92.5870    43.0650    30.9680 hc         1 A1C       0.067700
     32 H6          92.8320    43.7030    32.5930 hc         1 A1C       0.067700
     33 H8          90.5210    43.5700    29.7140 ha         1 A1C       0.125500
     34 H9          88.5140    44.9970    29.5450 h4         1 A1C       0.020100
     35 H10         88.8980    46.2620    33.4320 h4         1 A1C       0.020100
     36 H11         90.9230    44.8940    33.7750 ha         1 A1C       0.125500
     37 H17         96.6070    33.6580    26.5210 h1         1 A1C       0.054450
     38 H16         97.6790    33.0080    27.7660 h1         1 A1C       0.054450
     39 H19         98.2250    33.3830    24.7990 hc         1 A1C       0.056950
     40 H18         98.6470    32.0010    25.8090 hc         1 A1C       0.056950
     41 H1          95.8570    41.0420    35.0180 hc         1 A1C       0.056700
     42 H2          95.9370    39.2860    34.8540 hc         1 A1C       0.056700
     43 H3          96.8100    40.3090    33.7250 hc         1 A1C       0.056700
     44 H12         92.3350    37.9650    29.4530 h4         1 A1C       0.040100
     45 H13         96.2950    37.4340    29.2820 hn         1 A1C       0.351500
     46 H15         95.5220    35.2600    27.6540 h1         1 A1C       0.068200
     47 H14         96.3360    34.6090    29.0640 h1         1 A1C       0.068200
     48 H21        100.5900    33.7970    25.2550 hc         1 A1C       0.056950
     49 H20        100.4080    33.2780    26.9290 hc         1 A1C       0.056950
     50 H22        100.1630    35.6400    27.2310 h1         1 A1C       0.054450
     51 H23         99.3910    35.8490    25.6590 h1         1 A1C       0.054450
     52 CL1         96.3270    37.6010    32.2100 cl         1 A1C      -0.162000
     53 C1          95.8880    40.2240    34.3010 c3         1 A1C      -0.106400
@<TRIPOS>BOND
     1     1    12 2   
     2     2    16 2   
     3     2    28 1   
     4     2    53 1   
     5     3     4 1   
     6     3    17 1   
     7     3    29 1   
     8     3    30 1   
     9     4     5 1   
    10     4    31 1   
    11     4    32 1   
    12     5     6 ar  
    13     5     9 ar  
    14     6     7 ar  
    15     6    33 1   
    16     7    18 ar  
    17     7    34 1   
    18     8     9 ar  
    19     8    18 ar  
    20     8    35 1   
    21     9    36 1   
    22    10    17 1   
    23    10    19 ar  
    24    10    28 ar  
    25    11    12 1   
    26    11    20 ar  
    27    11    27 ar  
    28    12    21 1   
    29    13    22 1   
    30    13    23 2   
    31    13    24 1   
    32    14    15 1   
    33    14    24 1   
    34    14    37 1   
    35    14    38 1   
    36    15    25 1   
    37    15    39 1   
    38    15    40 1   
    39    16    17 1   
    40    19    20 ar  
    41    20    44 1   
    42    21    22 1   
    43    21    45 1   
    44    22    46 1   
    45    22    47 1   
    46    24    26 1   
    47    25    26 1   
    48    25    48 1   
    49    25    49 1   
    50    26    50 1   
    51    26    51 1   
    52    27    28 ar  
    53    27    52 1   
    54    41    53 1   
    55    42    53 1   
    56    43    53 1   
@<TRIPOS>SUBSTRUCTURE
     1 A1C         1 TEMP              0 ****  ****    0 ROOT
