@<TRIPOS>MOLECULE
A1C
   34    36     1     0     0
SMALL
abcg2


@<TRIPOS>ATOM
      1 C10        -20.5400   -27.2280    17.4850 c6         1 A1C       0.094000
      2 C15        -20.6000   -25.4580    14.8000 ca         1 A1C      -0.087300
      3 C17        -18.9020   -23.7460    14.9860 ca         1 A1C      -0.080500
      4 C20        -21.1830   -23.1310    14.4730 ca         1 A1C      -0.080500
      5 C21        -21.5450   -24.4710    14.5210 ca         1 A1C      -0.094500
      6 C02        -18.5290   -26.7810    11.4760 c          1 A1C       0.747500
      7 C04        -18.3690   -28.8920    11.9520 c2         1 A1C       0.458200
      8 C05        -19.5000   -28.3610    12.7820 c5         1 A1C      -0.034000
      9 C09        -19.6890   -28.1170    16.5960 c6         1 A1C       0.083000
     10 C12        -22.2430   -27.1090    15.7480 c          1 A1C       0.556000
     11 C14        -21.0340   -26.9210    14.8140 c6         1 A1C       0.087000
     12 C16        -19.2810   -25.0840    15.0300 ca         1 A1C      -0.094500
     13 C18        -19.8600   -22.7850    14.7090 ca         1 A1C      -0.001900
     14 N03        -17.8340   -27.9990    11.2160 ne         1 A1C      -0.583100
     15 N08        -19.9590   -27.8480    15.1730 n          1 A1C      -0.393800
     16 N11        -21.9250   -27.2640    17.0380 ns         1 A1C      -0.499900
     17 O13        -23.3880   -27.0860    15.3080 o          1 A1C      -0.551000
     18 O22        -19.5220   -26.9860    12.3880 os         1 A1C      -0.429100
     19 BR19       -19.3460   -20.9410    14.6470 br         1 A1C      -0.103100
     20 H1         -20.4950   -27.6040    18.5040 h1         1 A1C       0.064200
     21 H2         -20.1660   -26.2020    17.4890 h1         1 A1C       0.064200
     22 H3         -17.8730   -23.4670    15.1650 ha         1 A1C       0.134000
     23 H4         -21.9220   -22.3740    14.2520 ha         1 A1C       0.134000
     24 H5         -22.5750   -24.7450    14.3340 ha         1 A1C       0.126000
     25 H6         -18.0450   -29.9230    11.9690 h4         1 A1C       0.076800
     26 H7         -20.4480   -28.8310    12.4970 h1         1 A1C       0.114700
     27 H8         -19.9140   -29.1660    16.7970 h1         1 A1C       0.069700
     28 H9         -18.6320   -27.9510    16.8020 h1         1 A1C       0.069700
     29 H10        -21.4070   -27.1810    13.8290 h1         1 A1C       0.102700
     30 H11        -18.5280   -25.8310    15.2360 ha         1 A1C       0.126000
     31 H12        -22.6730   -27.3620    17.7090 hn         1 A1C       0.331500
     32 C06        -19.2530   -28.5740    14.2860 c          1 A1C       0.607100
     33 O01        -18.3110   -25.7130    10.9840 o          1 A1C      -0.423000
     34 O07        -18.4320   -29.4200    14.6280 o          1 A1C      -0.589100
@<TRIPOS>BOND
     1     1     9 1   
     2     1    16 1   
     3     1    20 1   
     4     1    21 1   
     5     2     5 ar  
     6     2    11 1   
     7     2    12 ar  
     8     3    12 ar  
     9     3    13 ar  
    10     3    22 1   
    11     4     5 ar  
    12     4    13 ar  
    13     4    23 1   
    14     5    24 1   
    15     6    14 1   
    16     6    18 1   
    17     6    33 2   
    18     7     8 1   
    19     7    14 2   
    20     7    25 1   
    21     8    18 1   
    22     8    26 1   
    23     8    32 1   
    24     9    15 1   
    25     9    27 1   
    26     9    28 1   
    27    10    11 1   
    28    10    16 1   
    29    10    17 2   
    30    11    15 1   
    31    11    29 1   
    32    12    30 1   
    33    13    19 1   
    34    15    32 1   
    35    16    31 1   
    36    32    34 2   
@<TRIPOS>SUBSTRUCTURE
     1 A1C         1 TEMP              0 ****  ****    0 ROOT
