@<TRIPOS>MOLECULE
A1C
   35    38     1     0     0
SMALL
abcg2


@<TRIPOS>ATOM
      1 C3          -2.6600     1.8910    20.8010 cp         1 A1C       0.361500
      2 C4          -2.2850     1.1570    21.9460 cq         1 A1C      -0.029000
      3 C5          -1.4510     1.7910    22.8400 ca         1 A1C      -0.103000
      4 C6          -1.0250     3.0710    22.5070 ca         1 A1C       0.370000
      5 CL23         0.0240     3.9240    23.5710 cl         1 A1C      -0.139000
      6 N1          -1.3580     3.6880    21.4020 nb         1 A1C      -0.296000
      7 C7          -2.7030    -0.2360    22.1950 cq         1 A1C      -0.013000
      8 C12         -2.5440    -1.2220    21.2270 ca         1 A1C      -0.144000
      9 C11         -2.9180    -2.5200    21.5330 ca         1 A1C       0.336400
     10 N10         -3.4330    -2.8800    22.7040 nb         1 A1C      -0.655000
     11 C9          -3.5810    -1.9370    23.6250 ca         1 A1C       0.336400
     12 C8          -3.2290    -0.6100    23.4250 ca         1 A1C      -0.144000
     13 N2          -2.1820     3.1040    20.5650 nb         1 A1C      -0.300000
     14 C13         -3.6120     1.3810    19.7940 cp         1 A1C      -0.159500
     15 C18         -3.3170     1.4780    18.4580 ca         1 A1C      -0.050000
     16 C17         -4.2230     1.0130    17.4780 ca         1 A1C      -0.046000
     17 C22         -3.9280     1.0920    16.0960 ca         1 A1C      -0.091000
     18 C21         -4.8240     0.6370    15.1680 ca         1 A1C      -0.108000
     19 C20         -6.0560     0.0830    15.5770 ca         1 A1C      -0.099000
     20 C19         -6.3670    -0.0060    16.9070 ca         1 A1C      -0.102000
     21 C16         -5.4600     0.4550    17.8890 ca         1 A1C      -0.026000
     22 C15         -5.7490     0.3830    19.2720 ca         1 A1C      -0.099000
     23 C14         -4.8510     0.8280    20.1990 ca         1 A1C      -0.088000
     24 H1          -1.1090     1.3040    23.7430 ha         1 A1C       0.149000
     25 H2          -2.1260    -0.9960    20.2550 ha         1 A1C       0.131000
     26 H3          -2.7950    -3.3040    20.7940 h4         1 A1C       0.024100
     27 H4          -4.0040    -2.2450    24.5740 h4         1 A1C       0.024100
     28 H5          -3.3830     0.1150    24.2140 ha         1 A1C       0.131000
     29 H6          -2.3730     1.9010    18.1380 ha         1 A1C       0.128000
     30 H7          -2.9820     1.5190    15.7840 ha         1 A1C       0.117000
     31 H8          -4.5920     0.7010    14.1130 ha         1 A1C       0.115000
     32 H9          -6.7550    -0.2720    14.8320 ha         1 A1C       0.115000
     33 H10         -7.3120    -0.4300    17.2230 ha         1 A1C       0.116000
     34 H11         -6.7000    -0.0270    19.5900 ha         1 A1C       0.118000
     35 H12         -5.1020     0.7780    21.2510 ha         1 A1C       0.118000
@<TRIPOS>BOND
     1     1     2 1   
     2     1    13 ar  
     3     1    14 1   
     4     2     3 2   
     5     2     7 1   
     6     3     4 ar  
     7     3    24 1   
     8     4     5 1   
     9     4     6 ar  
    10     6    13 ar  
    11     7     8 1   
    12     7    12 2   
    13     8     9 ar  
    14     8    25 1   
    15     9    10 ar  
    16     9    26 1   
    17    10    11 ar  
    18    11    12 ar  
    19    11    27 1   
    20    12    28 1   
    21    14    15 ar  
    22    14    23 ar  
    23    15    16 ar  
    24    15    29 1   
    25    16    17 ar  
    26    16    21 ar  
    27    17    18 ar  
    28    17    30 1   
    29    18    19 ar  
    30    18    31 1   
    31    19    20 ar  
    32    19    32 1   
    33    20    21 ar  
    34    20    33 1   
    35    21    22 ar  
    36    22    23 ar  
    37    22    34 1   
    38    23    35 1   
@<TRIPOS>SUBSTRUCTURE
     1 A1C         1 TEMP              0 ****  ****    0 ROOT
