@<TRIPOS>MOLECULE
A1C
   20    20     1     0     0
SMALL
abcg2


@<TRIPOS>ATOM
      1 C10         16.4390   -11.3930     6.2770 c3         1 A1C       0.208900
      2 O01         16.4260   -15.3720     1.1680 oh         1 A1C      -0.657000
      3 C03         15.6070   -14.1370     3.0330 ca         1 A1C      -0.079300
      4 C04         16.7530   -13.3530     3.0420 ca         1 A1C      -0.075000
      5 C05         16.9970   -12.4910     4.1000 ca         1 A1C      -0.099000
      6 C06         16.1280   -12.3730     5.1810 ca         1 A1C      -0.061300
      7 C07         14.9830   -13.1660     5.1490 ca         1 A1C       0.009100
      8 C08         14.7220   -14.0360     4.1020 ca         1 A1C      -0.093000
      9 BR9         13.7340   -13.1110     6.5730 br         1 A1C      -0.102100
     10 O11         15.5790   -10.2850     6.1420 oh         1 A1C      -0.647000
     11 H1          16.3250   -11.8790     7.2530 h1         1 A1C       0.031200
     12 H2          17.4920   -11.1030     6.1900 h1         1 A1C       0.031200
     13 H3          16.1660   -15.8630     0.3830 ho         1 A1C       0.448000
     14 H4          14.5130   -14.5710     1.2670 h1         1 A1C       0.028700
     15 H5          14.7880   -15.9620     2.3030 h1         1 A1C       0.028700
     16 H6          17.4620   -13.4080     2.2270 ha         1 A1C       0.134000
     17 H7          17.8940   -11.8830     4.0890 ha         1 A1C       0.116000
     18 H8          13.8270   -14.6470     4.1130 ha         1 A1C       0.126000
     19 H9          15.6390    -9.7640     6.9490 ho         1 A1C       0.444000
     20 C02         15.2680   -15.0620     1.8960 c3         1 A1C       0.208900
@<TRIPOS>BOND
     1     1     6 1   
     2     1    10 1   
     3     1    11 1   
     4     1    12 1   
     5     2    13 1   
     6     2    20 1   
     7     3     4 ar  
     8     3     8 ar  
     9     3    20 1   
    10     4     5 ar  
    11     4    16 1   
    12     5     6 ar  
    13     5    17 1   
    14     6     7 ar  
    15     7     8 ar  
    16     7     9 1   
    17     8    18 1   
    18    10    19 1   
    19    14    20 1   
    20    15    20 1   
@<TRIPOS>SUBSTRUCTURE
     1 A1C         1 TEMP              0 ****  ****    0 ROOT
