@<TRIPOS>MOLECULE
A1C
   21    21     1     0     0
SMALL
abcg2


@<TRIPOS>ATOM
      1 C10         16.5010   -12.3210     4.8920 ca         1 A1C       0.165100
      2 N12         16.0450   -11.2200     6.9880 nv         1 A1C      -1.055000
      3 C01         17.3520   -14.3350     0.6020 c3         1 A1C       0.153900
      4 O02         16.5240   -14.0890     1.7400 os         1 A1C      -0.422100
      5 C03         17.0110   -13.3470     2.7100 c          1 A1C       0.622700
      6 O04         18.1370   -12.8730     2.6720 o          1 A1C      -0.539000
      7 C05         16.0840   -13.1380     3.8330 ca         1 A1C      -0.227600
      8 C06         14.8080   -13.7230     3.8570 ca         1 A1C      -0.057000
      9 C07         13.9760   -13.4960     4.9280 ca         1 A1C      -0.131000
     10 C08         14.3920   -12.6850     5.9840 ca         1 A1C      -0.121000
     11 C09         15.6420   -12.0840     5.9870 ca         1 A1C       0.234000
     12 O11         17.7000   -11.7280     4.9440 oh         1 A1C      -0.553100
     13 H1          15.5270   -11.3090     7.8490 hn         1 A1C       0.449000
     14 H2          17.0370   -11.1900     7.1630 hn         1 A1C       0.449000
     15 H3          16.7650   -14.9650    -0.0590 h1         1 A1C       0.052033
     16 H4          17.6050   -13.4070     0.0900 h1         1 A1C       0.052033
     17 H5          18.2680   -14.8540     0.8820 h1         1 A1C       0.052033
     18 H6          14.4830   -14.3540     3.0420 ha         1 A1C       0.129000
     19 H7          12.9940   -13.9480     4.9590 ha         1 A1C       0.118000
     20 H8          13.7280   -12.5170     6.8240 ha         1 A1C       0.115000
     21 H9          18.1980   -11.9870     4.1400 ho         1 A1C       0.514000
@<TRIPOS>BOND
     1     1     7 ar  
     2     1    11 ar  
     3     1    12 1   
     4     2    11 1   
     5     2    13 1   
     6     2    14 1   
     7     3     4 1   
     8     3    15 1   
     9     3    16 1   
    10     3    17 1   
    11     4     5 1   
    12     5     6 2   
    13     5     7 1   
    14     7     8 ar  
    15     8     9 ar  
    16     8    18 1   
    17     9    10 ar  
    18     9    19 1   
    19    10    11 ar  
    20    10    20 1   
    21    12    21 1   
@<TRIPOS>SUBSTRUCTURE
     1 A1C         1 TEMP              0 ****  ****    0 ROOT
