@<TRIPOS>MOLECULE
A1C
   20    20     1     0     0
SMALL
abcg2


@<TRIPOS>ATOM
      1 C01         18.4270   -13.6090     0.2780 c3         1 A1C       0.152900
      2 O02         17.5550   -12.9740     1.2140 os         1 A1C      -0.432100
      3 C03         17.0410   -13.7200     2.1780 c          1 A1C       0.612100
      4 O04         17.2420   -14.9020     2.2970 o          1 A1C      -0.483000
      5 C05         16.2080   -12.9000     3.1240 c5         1 A1C      -0.250700
      6 C06         15.1270   -13.6480     3.8960 c5         1 A1C      -0.066400
      7 C07         14.8810   -12.7530     5.1140 c5         1 A1C      -0.077400
      8 C08         16.2760   -12.2790     5.5100 c5         1 A1C      -0.188400
      9 C09         17.0690   -12.2650     4.2230 c          1 A1C       0.586100
     10 O10         18.1880   -11.8510     4.0730 o          1 A1C      -0.493100
     11 H1          18.7350   -12.8320    -0.4160 h1         1 A1C       0.049700
     12 H2          19.3070   -14.0220     0.7710 h1         1 A1C       0.049700
     13 H3          17.9160   -14.4010    -0.2680 h1         1 A1C       0.049700
     14 H4          15.7570   -12.0600     2.5790 hc         1 A1C       0.099700
     15 H5          14.2290   -13.8120     3.3020 hc         1 A1C       0.064700
     16 H6          15.4990   -14.6230     4.2170 hc         1 A1C       0.064700
     17 H7          14.2580   -11.9020     4.8320 hc         1 A1C       0.052700
     18 H8          14.3710   -13.2790     5.9190 hc         1 A1C       0.052700
     19 H9          16.7600   -12.9990     6.1790 hc         1 A1C       0.078700
     20 H10         16.3110   -11.3090     6.0080 hc         1 A1C       0.078700
@<TRIPOS>BOND
     1     1     2 1   
     2     1    11 1   
     3     1    12 1   
     4     1    13 1   
     5     2     3 1   
     6     3     4 2   
     7     3     5 1   
     8     5     6 1   
     9     5     9 1   
    10     5    14 1   
    11     6     7 1   
    12     6    15 1   
    13     6    16 1   
    14     7     8 1   
    15     7    17 1   
    16     7    18 1   
    17     8     9 1   
    18     8    19 1   
    19     8    20 1   
    20     9    10 2   
@<TRIPOS>SUBSTRUCTURE
     1 A1C         1 TEMP              0 ****  ****    0 ROOT
