@<TRIPOS>MOLECULE
A1C
   50    52     1     0     0
SMALL
abcg2


@<TRIPOS>ATOM
      1 C1         -16.5860     5.7420    14.8970 c3         1 A1C      -0.036800
      2 C2         -15.4740     6.6600    14.4750 ca         1 A1C      -0.028300
      3 C3         -15.3150     7.0820    13.1530 ca         1 A1C      -0.127000
      4 C4         -14.2840     7.9430    12.7580 ca         1 A1C      -0.103000
      5 C5         -13.3490     8.4200    13.6760 ca         1 A1C      -0.114000
      6 C6         -13.5030     7.9950    14.9860 ca         1 A1C      -0.071200
      7 C7         -14.5410     7.1390    15.3990 ca         1 A1C       0.108400
      8 N1         -14.4490     6.9070    16.7680 nc         1 A1C      -0.637100
      9 N3         -12.7670     8.2600    16.1380 na         1 A1C      -0.213600
     10 C8         -13.4010     7.6000    17.1680 cd         1 A1C       0.648700
     11 C9         -11.6880     9.2040    16.2220 c3         1 A1C       0.010600
     12 C10        -12.1950    10.6400    16.3800 c          1 A1C       0.578100
     13 O1         -13.3240    10.8990    16.7570 o          1 A1C      -0.529100
     14 N4         -11.2610    11.5800    16.0880 ns         1 A1C      -0.169000
     15 C11        -11.5220    12.9660    16.1560 ca         1 A1C      -0.032000
     16 C12        -11.6190    13.6400    17.3770 ca         1 A1C       0.127500
     17 CL1        -11.3980    12.7580    18.8630 cl         1 A1C      -0.188500
     18 C13        -11.8720    15.0000    17.4390 ca         1 A1C      -0.086000
     19 C14        -12.0110    15.7360    16.2660 ca         1 A1C      -0.104300
     20 C15        -12.3070    17.2200    16.3190 c3         1 A1C       0.203900
     21 O2         -11.7510    17.8630    17.4480 os         1 A1C      -0.460000
     22 C16        -10.3160    18.0160    17.4090 c3         1 A1C       0.161300
     23 C17         -9.8530    18.1390    18.8480 c3         1 A1C      -0.103100
     24 C18         -9.9240    19.2210    16.5650 c3         1 A1C      -0.103100
     25 C19        -11.9030    15.0920    15.0380 ca         1 A1C      -0.086000
     26 C20        -11.6750    13.7250    14.9940 ca         1 A1C       0.127500
     27 CL2        -11.5660    12.9350    13.4430 cl         1 A1C      -0.188500
     28 H2         -16.1920     4.8190    15.3310 hc         1 A1C       0.045367
     29 H3         -17.2120     6.2080    15.6620 hc         1 A1C       0.045367
     30 H1         -17.2180     5.4800    14.0490 hc         1 A1C       0.045367
     31 H4         -16.0220     6.7340    12.4090 ha         1 A1C       0.110000
     32 H5         -14.2120     8.2450    11.7210 ha         1 A1C       0.111000
     33 H6         -12.5540     9.0900    13.3770 ha         1 A1C       0.111000
     34 H8         -13.3690     7.0170    19.0830 hn         1 A1C       0.473500
     35 H7         -12.0300     7.9450    18.6390 hn         1 A1C       0.473500
     36 H9         -11.0430     8.9730    17.0710 h1         1 A1C       0.070200
     37 H10        -11.0680     9.1210    15.3280 h1         1 A1C       0.070200
     38 H11        -10.4010    11.2850    15.6470 hn         1 A1C       0.161000
     39 H12        -11.9370    15.4930    18.3980 ha         1 A1C       0.141500
     40 H13        -11.9770    17.6860    15.3850 h1         1 A1C       0.059200
     41 H14        -13.3870    17.3670    16.3920 h1         1 A1C       0.059200
     42 H15         -9.8840    17.1110    16.9690 h1         1 A1C       0.036700
     43 H18        -10.1190    17.2460    19.4160 hc         1 A1C       0.043533
     44 H16         -8.7700    18.2650    18.8870 hc         1 A1C       0.043533
     45 H17        -10.3180    19.0060    19.3230 hc         1 A1C       0.043533
     46 H19         -8.8370    19.3130    16.5260 hc         1 A1C       0.043533
     47 H20        -10.2880    19.1290    15.5400 hc         1 A1C       0.043533
     48 H21        -10.3340    20.1360    16.9990 hc         1 A1C       0.043533
     49 H22        -11.9960    15.6490    14.1160 ha         1 A1C       0.141500
     50 N2         -12.9980     7.7220    18.4630 nv         1 A1C      -0.999200
@<TRIPOS>BOND
     1     1     2 1   
     2     1    28 1   
     3     1    29 1   
     4     1    30 1   
     5     2     3 ar  
     6     2     7 ar  
     7     3     4 ar  
     8     3    31 1   
     9     4     5 ar  
    10     4    32 1   
    11     5     6 ar  
    12     5    33 1   
    13     6     7 ar  
    14     6     9 1   
    15     7     8 1   
    16     8    10 2   
    17     9    10 1   
    18     9    11 1   
    19    10    50 1   
    20    11    12 1   
    21    11    36 1   
    22    11    37 1   
    23    12    13 2   
    24    12    14 1   
    25    14    15 1   
    26    14    38 1   
    27    15    16 ar  
    28    15    26 ar  
    29    16    17 1   
    30    16    18 ar  
    31    18    19 ar  
    32    18    39 1   
    33    19    20 1   
    34    19    25 ar  
    35    20    21 1   
    36    20    40 1   
    37    20    41 1   
    38    21    22 1   
    39    22    23 1   
    40    22    24 1   
    41    22    42 1   
    42    23    43 1   
    43    23    44 1   
    44    23    45 1   
    45    24    46 1   
    46    24    47 1   
    47    24    48 1   
    48    25    26 ar  
    49    25    49 1   
    50    26    27 1   
    51    34    50 1   
    52    35    50 1   
@<TRIPOS>SUBSTRUCTURE
     1 A1C         1 TEMP              0 ****  ****    0 ROOT
