@<TRIPOS>MOLECULE
A1C
   44    46     1     0     0
SMALL
abcg2


@<TRIPOS>ATOM
      1 C4         -11.0830    16.9240    16.9530 c3         1 A1C       0.206900
      2 C14        -15.3470     7.7740    13.0650 ca         1 A1C      -0.127000
      3 C5         -10.2570    14.6500    17.6450 ca         1 A1C      -0.073000
      4 C6         -10.2180    13.2690    17.5190 ca         1 A1C      -0.115000
      5 C11        -14.6700     7.3940    15.3100 ca         1 A1C       0.107400
      6 C7         -10.9540    12.6360    16.5290 ca         1 A1C      -0.037000
      7 C8         -11.9160    10.3980    16.6990 c          1 A1C       0.577100
      8 C9         -11.6050     8.9110    16.4930 c3         1 A1C       0.010600
      9 C10        -13.5570     7.4290    17.1550 cc         1 A1C       0.644700
     10 C12        -15.6170     7.1870    14.3030 ca         1 A1C      -0.029300
     11 C13        -16.8570     6.3790    14.5570 c3         1 A1C      -0.036800
     12 N1         -10.8910    11.2240    16.3930 ns         1 A1C      -0.173000
     13 N2         -12.8010     8.1480    16.2550 na         1 A1C      -0.211600
     14 C3         -11.0440    15.4230    16.7970 ca         1 A1C      -0.077300
     15 C1         -12.6630    15.6030    14.8420 c3         1 A1C      -0.051800
     16 C15        -14.1950     8.5350    12.8300 ca         1 A1C      -0.104000
     17 C16        -13.2470     8.7410    13.8310 ca         1 A1C      -0.112000
     18 C17        -13.5120     8.1540    15.0580 ca         1 A1C      -0.070200
     19 C18        -11.7270    13.4180    15.6670 ca         1 A1C       0.128000
     20 C2         -11.8030    14.8080    15.7860 ca         1 A1C      -0.056300
     21 N4         -14.6660     6.9490    16.6280 nd         1 A1C      -0.637100
     22 O1         -10.2180    17.3320    18.0060 oh         1 A1C      -0.666000
     23 O2         -12.9990    10.7780    17.1170 o          1 A1C      -0.538100
     24 CL1        -12.6030    12.6280    14.3760 cl         1 A1C      -0.193000
     25 H4         -10.7810    17.3970    16.0120 h1         1 A1C       0.033700
     26 H5         -12.1110    17.2420    17.1630 h1         1 A1C       0.033700
     27 H17        -16.0600     7.6380    12.2600 ha         1 A1C       0.110000
     28 H7          -9.6770    15.1350    18.4150 ha         1 A1C       0.141000
     29 H8          -9.6180    12.6680    18.1900 ha         1 A1C       0.121000
     30 H11        -11.0910     8.5430    17.3810 h1         1 A1C       0.067200
     31 H10        -10.9220     8.7780    15.6530 h1         1 A1C       0.067200
     32 H15        -16.6090     5.3620    14.8700 hc         1 A1C       0.044367
     33 H16        -17.4560     6.8190    15.3590 hc         1 A1C       0.044367
     34 H14        -17.4750     6.3210    13.6610 hc         1 A1C       0.044367
     35 H9         -10.0140    10.8200    16.0960 hn         1 A1C       0.156000
     36 H12        -13.7020     6.5710    18.9540 hn         1 A1C       0.470500
     37 H13        -12.2200     7.3300    18.6920 hn         1 A1C       0.470500
     38 H3         -13.6880    15.2290    14.8470 hc         1 A1C       0.051700
     39 H1         -12.6870    16.6570    15.1000 hc         1 A1C       0.051700
     40 H2         -12.2960    15.5140    13.8170 hc         1 A1C       0.051700
     41 H18        -14.0390     8.9730    11.8520 ha         1 A1C       0.110000
     42 H19        -12.3610     9.3370    13.6560 ha         1 A1C       0.113000
     43 H6         -10.2710    18.2930    18.0740 ho         1 A1C       0.448000
     44 N3         -13.2030     7.2980    18.4650 nv         1 A1C      -0.996200
@<TRIPOS>BOND
     1     1    14 1   
     2     1    22 1   
     3     1    25 1   
     4     1    26 1   
     5     2    10 ar  
     6     2    16 ar  
     7     2    27 1   
     8     3     4 ar  
     9     3    14 ar  
    10     3    28 1   
    11     4     6 ar  
    12     4    29 1   
    13     5    10 ar  
    14     5    18 ar  
    15     5    21 1   
    16     6    12 1   
    17     6    19 ar  
    18     7     8 1   
    19     7    12 1   
    20     7    23 2   
    21     8    13 1   
    22     8    30 1   
    23     8    31 1   
    24     9    13 1   
    25     9    21 2   
    26     9    44 1   
    27    10    11 1   
    28    11    32 1   
    29    11    33 1   
    30    11    34 1   
    31    12    35 1   
    32    13    18 1   
    33    14    20 ar  
    34    15    20 1   
    35    15    38 1   
    36    15    39 1   
    37    15    40 1   
    38    16    17 ar  
    39    16    41 1   
    40    17    18 ar  
    41    17    42 1   
    42    19    20 ar  
    43    19    24 1   
    44    22    43 1   
    45    36    44 1   
    46    37    44 1   
@<TRIPOS>SUBSTRUCTURE
     1 A1C         1 TEMP              0 ****  ****    0 ROOT
