@<TRIPOS>MOLECULE
A1C
   75    80     1     0     0
SMALL
abcg2


@<TRIPOS>ATOM
      1 C4         144.9410   161.0960   172.4760 c2         1 A1C       0.211800
      2 C6         142.4760   161.3250   171.9710 c3         1 A1C       0.247800
      3 C7         142.1010   160.1910   171.0260 c3         1 A1C      -0.221400
      4 C8         140.8740   160.5320   170.2150 c          1 A1C       0.613100
      5 C10        141.2130   158.5240   168.8930 c3         1 A1C       0.174600
      6 C13        143.3260   160.2830   173.9600 cc         1 A1C       0.611400
      7 C20        145.6620   162.5190   175.7270 ca         1 A1C      -0.038000
      8 C21        146.0120   163.4380   176.7080 ca         1 A1C      -0.180500
      9 C22        146.8100   163.0370   177.7780 ca         1 A1C       0.162100
     10 C24        146.8980   165.2320   178.6950 c3         1 A1C       0.212900
     11 C26        146.8920   166.2250   180.9810 ca         1 A1C      -0.086000
     12 C28        148.8510   167.1810   181.9700 ca         1 A1C      -0.097000
     13 C11        142.1920   158.8510   167.7880 c3         1 A1C      -0.125100
     14 C18        145.6850   160.2010   174.7290 c6         1 A1C       0.235800
     15 C19        146.0860   161.2000   175.7910 ca         1 A1C      -0.150300
     16 C2         147.3270   160.7250   172.9220 c          1 A1C       0.599300
     17 C25        147.6010   165.9240   179.8240 ca         1 A1C      -0.092300
     18 C27        147.5080   166.8510   182.0570 ca         1 A1C      -0.116000
     19 C29        149.5650   166.8870   180.8150 ca         1 A1C      -0.112000
     20 C3         145.9270   160.6950   173.3230 ce         1 A1C      -0.336400
     21 C30        148.9620   166.2530   179.7340 ca         1 A1C      -0.017300
     22 C31        149.7250   165.9600   178.4880 cx         1 A1C      -0.094400
     23 C32        151.2040   165.7300   178.4930 cx         1 A1C      -0.120400
     24 C33        150.2760   164.5870   178.2270 cx         1 A1C      -0.120400
     25 C34        147.2410   161.7110   177.8480 ca         1 A1C      -0.180500
     26 C35        146.8770   160.8090   176.8660 ca         1 A1C      -0.038000
     27 C36        145.2530   161.6630   171.1250 c6         1 A1C      -0.051200
     28 C37        146.6710   162.2260   171.0010 c6         1 A1C      -0.034000
     29 C38        146.8060   163.5290   171.7920 c3         1 A1C      -0.089600
     30 C39        146.9580   162.5040   169.5290 c3         1 A1C      -0.089600
     31 C40        147.6490   161.1790   171.5240 c6         1 A1C      -0.172400
     32 N14        142.1620   159.8770   174.4100 nd         1 A1C      -0.429000
     33 N15        142.4330   159.2480   175.5570 nd         1 A1C      -0.034000
     34 N16        143.6780   159.2540   175.8160 nc         1 A1C      -0.184800
     35 N17        144.2670   159.9000   174.8140 na         1 A1C      -0.096700
     36 N5         143.6100   160.9660   172.8180 nh         1 A1C      -0.641100
     37 O1         148.1960   160.3460   173.6900 o          1 A1C      -0.528100
     38 O12        140.2320   161.5340   170.4000 o          1 A1C      -0.438000
     39 O9         140.4590   159.6810   169.2850 os         1 A1C      -0.443100
     40 H1         142.7130   162.2330   171.4250 h1         1 A1C       0.088200
     41 H2         141.6460   161.5700   172.6300 h1         1 A1C       0.088200
     42 H3         141.9010   159.2810   171.6000 hc         1 A1C       0.076700
     43 H4         142.9410   159.9550   170.3690 hc         1 A1C       0.076700
     44 H5         140.4680   157.8110   168.5430 h1         1 A1C       0.058200
     45 H6         141.7140   158.0720   169.7500 h1         1 A1C       0.058200
     46 H7         145.0490   162.8600   174.9010 ha         1 A1C       0.115500
     47 H8         145.6540   164.4550   176.6190 ha         1 A1C       0.124500
     48 H9         147.2120   165.6380   177.7290 h1         1 A1C       0.041200
     49 H10        145.8160   165.3790   178.7780 h1         1 A1C       0.041200
     50 H12        149.3460   167.6750   182.7970 ha         1 A1C       0.113000
     51 H13        142.6900   157.9360   167.4660 hc         1 A1C       0.048367
     52 H14        141.6840   159.2780   166.9240 hc         1 A1C       0.048367
     53 H15        142.9650   159.5500   168.1120 hc         1 A1C       0.048367
     54 H16        146.2250   159.2660   174.8960 h1         1 A1C       0.099700
     55 H17        146.9420   167.0800   182.9500 ha         1 A1C       0.116000
     56 H18        150.6110   167.1620   180.7550 ha         1 A1C       0.115000
     57 H20        149.3440   166.4700   177.6070 hc         1 A1C       0.079700
     58 H21        151.7310   165.7390   179.4390 hc         1 A1C       0.074200
     59 H22        151.7770   166.1330   177.6680 hc         1 A1C       0.074200
     60 H23        150.1560   163.8460   179.0070 hc         1 A1C       0.074200
     61 H24        150.2020   164.1930   177.2210 hc         1 A1C       0.074200
     62 H25        147.8660   161.3980   178.6750 ha         1 A1C       0.124500
     63 H26        147.2240   159.7850   176.9340 ha         1 A1C       0.115500
     64 H27        144.5450   162.4520   170.8690 hc         1 A1C       0.066200
     65 H28        146.5940   163.4040   172.8550 hc         1 A1C       0.042033
     66 H29        147.8200   163.9210   171.7020 hc         1 A1C       0.042033
     67 H30        146.1200   164.2850   171.4060 hc         1 A1C       0.042033
     68 H31        147.9680   162.8990   169.4000 hc         1 A1C       0.042033
     69 H32        146.8760   161.5950   168.9300 hc         1 A1C       0.042033
     70 H33        146.2600   163.2390   169.1240 hc         1 A1C       0.042033
     71 H34        147.6130   160.2910   170.8800 hc         1 A1C       0.074700
     72 H35        148.6760   161.5490   171.4960 hc         1 A1C       0.074700
     73 H19        145.1090   160.8710   170.3800 hc         1 A1C       0.066200
     74 O23        147.2100   163.8470   178.7730 os         1 A1C      -0.336100
     75 H11        145.8410   165.9690   181.0410 ha         1 A1C       0.114000
@<TRIPOS>BOND
     1     1    20 2   
     2     1    27 1   
     3     1    36 1   
     4     2     3 1   
     5     2    36 1   
     6     2    40 1   
     7     2    41 1   
     8     3     4 1   
     9     3    42 1   
    10     3    43 1   
    11     4    38 2   
    12     4    39 1   
    13     5    13 1   
    14     5    39 1   
    15     5    44 1   
    16     5    45 1   
    17     6    32 2   
    18     6    35 1   
    19     6    36 1   
    20     7     8 ar  
    21     7    15 ar  
    22     7    46 1   
    23     8     9 ar  
    24     8    47 1   
    25     9    25 ar  
    26     9    74 1   
    27    10    17 1   
    28    10    48 1   
    29    10    49 1   
    30    10    74 1   
    31    11    17 ar  
    32    11    18 ar  
    33    11    75 1   
    34    12    18 ar  
    35    12    19 ar  
    36    12    50 1   
    37    13    51 1   
    38    13    52 1   
    39    13    53 1   
    40    14    15 1   
    41    14    20 1   
    42    14    35 1   
    43    14    54 1   
    44    15    26 ar  
    45    16    20 1   
    46    16    31 1   
    47    16    37 2   
    48    17    21 ar  
    49    18    55 1   
    50    19    21 ar  
    51    19    56 1   
    52    21    22 1   
    53    22    23 1   
    54    22    24 1   
    55    22    57 1   
    56    23    24 1   
    57    23    58 1   
    58    23    59 1   
    59    24    60 1   
    60    24    61 1   
    61    25    26 ar  
    62    25    62 1   
    63    26    63 1   
    64    27    28 1   
    65    27    64 1   
    66    27    73 1   
    67    28    29 1   
    68    28    30 1   
    69    28    31 1   
    70    29    65 1   
    71    29    66 1   
    72    29    67 1   
    73    30    68 1   
    74    30    69 1   
    75    30    70 1   
    76    31    71 1   
    77    31    72 1   
    78    32    33 1   
    79    33    34 2   
    80    34    35 1   
@<TRIPOS>SUBSTRUCTURE
     1 A1C         1 TEMP              0 ****  ****    0 ROOT
