@<TRIPOS>MOLECULE
A1C
   41    42     1     0     0
SMALL
abcg2


@<TRIPOS>ATOM
      1 O4           4.3600     6.5630    12.0190 os         1 A1C      -0.474000
      2 O2           5.1530     7.8330     8.2960 o          1 A1C      -0.572000
      3 O5           3.6910     5.5230    14.8260 os         1 A1C      -0.402400
      4 C2           4.4970     5.1390    10.1300 c5         1 A1C      -0.129400
      5 C3           4.6730     4.3000    11.3940 c5         1 A1C       0.184300
      6 C4           4.0740     5.2230    12.4640 c5         1 A1C       0.092300
      7 C1           4.5890     6.5860    10.6210 c5         1 A1C       0.320700
      8 N1           5.9010     7.2180    10.3590 n          1 A1C      -0.311000
      9 C5           6.9200     7.1460    11.2500 cc         1 A1C       0.066600
     10 C8           8.1110     7.7370    11.0040 cd         1 A1C      -0.531600
     11 C7           8.2360     8.4460     9.7710 cd         1 A1C       0.777500
     12 N4           7.2510     8.4950     8.8810 nc         1 A1C      -0.796100
     13 C6           6.0750     7.8650     9.1180 c          1 A1C       0.705400
     14 N2           9.3770     9.0910     9.4830 nv         1 A1C      -1.060200
     15 C9           4.6330     5.0080    13.8510 c3         1 A1C       0.014600
     16 PA           3.4070     4.7330    16.1750 p5         1 A1C       1.395200
     17 S1           4.8090     4.8210    17.5180 s          1 A1C      -0.799000
     18 O2A          2.0350     5.4260    16.5930 oh         1 A1C      -0.487400
     19 O3A          3.0690     3.2550    15.7850 os         1 A1C      -0.648800
     20 PB           2.2200     2.5210    14.5080 p5         1 A1C       1.519800
     21 O2B          1.2510     3.5170    13.9740 o          1 A1C      -0.865000
     22 O1B          3.3050     2.0000    13.6070 o          1 A1C      -0.865000
     23 O3B          1.5840     1.3780    15.3730 os         1 A1C      -0.694800
     24 PG           0.2760     0.3000    14.9580 p5         1 A1C       1.347900
     25 O2G          0.6510    -0.9240    15.7680 o          1 A1C      -0.938167
     26 O1G          0.3870     0.1470    13.4540 o          1 A1C      -0.938167
     27 O3G         -0.9550     1.0430    15.4370 o          1 A1C      -0.938167
     28 O3           4.0080     3.0640    11.2700 oh         1 A1C      -0.772000
     29 H2'1         3.4980     4.9520     9.7350 hc         1 A1C       0.073700
     30 H2'2         5.2280     4.9230     9.3540 hc         1 A1C       0.073700
     31 H3           5.7400     4.1470    11.6060 h1         1 A1C       0.000700
     32 H4           2.9920     5.0700    12.4920 h1         1 A1C       0.142700
     33 H1           3.8600     7.2270    10.1350 h2         1 A1C       0.094700
     34 H6           6.7190     6.6010    12.1580 h4         1 A1C       0.232000
     35 H5           8.9220     7.6850    11.7140 ha         1 A1C       0.192000
     36 HN41         9.4670     9.5830     8.6100 hn         1 A1C       0.487500
     37 HN42        10.1590     9.0730    10.1150 hn         1 A1C       0.487500
     38 H5'1         4.7860     3.9430    14.0170 h1         1 A1C       0.064200
     39 H5'2         5.5780     5.5340    13.9810 h1         1 A1C       0.064200
     40 H12          2.0400     5.7370    17.5100 ho         1 A1C       0.256000
     41 HO3          3.7870     2.6930    12.1640 ho         1 A1C       0.625000
@<TRIPOS>BOND
     1     1     6 1   
     2     1     7 1   
     3     2    13 2   
     4     3    15 1   
     5     3    16 1   
     6     4     5 1   
     7     4     7 1   
     8     4    29 1   
     9     4    30 1   
    10     5     6 1   
    11     5    28 1   
    12     5    31 1   
    13     6    15 1   
    14     6    32 1   
    15     7     8 1   
    16     7    33 1   
    17     8     9 1   
    18     8    13 1   
    19     9    10 2   
    20     9    34 1   
    21    10    11 1   
    22    10    35 1   
    23    11    12 2   
    24    11    14 1   
    25    12    13 1   
    26    14    36 1   
    27    14    37 1   
    28    15    38 1   
    29    15    39 1   
    30    16    17 2   
    31    16    18 1   
    32    16    19 1   
    33    18    40 1   
    34    19    20 1   
    35    20    21 1   
    36    20    22 1   
    37    20    23 1   
    38    23    24 1   
    39    24    25 1   
    40    24    26 1   
    41    24    27 1   
    42    28    41 1   
@<TRIPOS>SUBSTRUCTURE
     1 A1C         1 TEMP              0 ****  ****    0 ROOT
