@<TRIPOS>MOLECULE
A1C
   63    66     1     0     0
SMALL
abcg2


@<TRIPOS>ATOM
      1 N3          -0.6860   -11.4040    32.1280 ns         1 A1C      -0.510900
      2 C4           0.3600   -10.4790    31.7520 c3         1 A1C       0.179000
      3 C5           0.7920   -10.7610    30.3170 c3         1 A1C      -0.178400
      4 C6           1.4500   -12.1230    30.1780 c          1 A1C       0.603100
      5 C10         -1.3460    -8.6280    31.5280 ca         1 A1C      -0.071000
      6 C13         -0.8140    -6.3750    32.1490 ca         1 A1C       0.184000
      7 C15          0.4560    -6.7600    32.5250 ca         1 A1C      -0.142000
      8 C17         -2.2580   -12.3990    33.6320 cc         1 A1C      -0.202600
      9 C20         -2.1660   -13.1050    37.2680 ca         1 A1C      -0.062000
     10 C21         -1.3640   -13.3200    38.3780 ca         1 A1C      -0.122000
     11 C22         -0.0720   -13.7820    38.1910 ca         1 A1C       0.150000
     12 C24          0.4230   -14.0370    36.9210 ca         1 A1C      -0.149000
     13 C2          -1.0570   -11.5720    33.4160 c          1 A1C       0.647700
     14 O7           2.2480   -12.5340    31.0060 o          1 A1C      -0.586100
     15 N8           1.1100   -12.8110    29.0800 nt         1 A1C      -0.613000
     16 C9          -0.0720    -9.0350    31.9060 ca         1 A1C      -0.109300
     17 C11         -1.7180    -7.3000    31.6520 ca         1 A1C       0.066000
     18 CL12        -3.2970    -6.7820    31.1960 cl         1 A1C      -0.177000
     19 F14         -1.1860    -5.0980    32.2700 f          1 A1C      -0.160000
     20 C16          0.8200    -8.0920    32.4020 ca         1 A1C      -0.060000
     21 C18         -2.5670   -13.1430    34.8010 cc         1 A1C      -0.004000
     22 C19         -1.7140   -13.3500    35.9720 ca         1 A1C      -0.054000
     23 C25         -0.4110   -13.8160    35.8450 ca         1 A1C       0.213000
     24 F26          0.0610   -14.0820    34.6210 f          1 A1C      -0.166000
     25 C27         -3.8440   -13.6610    34.6310 cd         1 A1C      -0.161800
     26 C29         -5.8800   -14.8680    35.3730 ce         1 A1C      -0.315200
     27 C30         -6.5170   -15.7380    36.3880 c          1 A1C       0.618300
     28 O31         -5.9300   -16.0140    37.4310 o          1 A1C      -0.607100
     29 N32         -7.7730   -16.1860    36.1400 n          1 A1C      -0.413800
     30 C33         -8.4900   -16.9680    37.1330 c6         1 A1C       0.063000
     31 C34         -8.8410   -18.3350    36.5690 c6         1 A1C       0.131600
     32 O35         -9.5720   -18.2240    35.3680 os         1 A1C      -0.443000
     33 C36         -8.8590   -17.4920    34.4010 c6         1 A1C       0.131600
     34 C37         -8.5090   -16.0940    34.8910 c6         1 A1C       0.063000
     35 N38         -4.2910   -13.2300    33.4120 na         1 A1C      -0.084000
     36 C39         -3.3570   -12.4800    32.8030 cd         1 A1C      -0.154000
     37 H1          -1.2030   -11.8710    31.3990 hn         1 A1C       0.308500
     38 H2           1.2200   -10.6430    32.4050 h1         1 A1C       0.105700
     39 H3           1.5290   -10.0100    30.0210 hc         1 A1C       0.065700
     40 H4          -0.0550   -10.6470    29.6360 hc         1 A1C       0.065700
     41 H5          -2.0620    -9.3440    31.1450 ha         1 A1C       0.121000
     42 H6           1.1470    -6.0250    32.9170 ha         1 A1C       0.139000
     43 H7          -3.1670   -12.7200    37.4120 ha         1 A1C       0.124000
     44 H8          -1.7410   -13.1180    39.3710 ha         1 A1C       0.135000
     45 H9           1.4290   -14.4040    36.7670 ha         1 A1C       0.148000
     46 H10         -4.0460   -14.8840    36.3710 ha         1 A1C       0.220000
     47 H11          1.5380   -13.7020    28.8830 hn         1 A1C       0.313500
     48 H12          0.4500   -12.4560    28.4100 hn         1 A1C       0.313500
     49 H13          1.8130    -8.3990    32.7060 ha         1 A1C       0.130000
     50 H14         -6.4630   -14.4900    34.5450 ha         1 A1C       0.168000
     51 H15         -7.8870   -17.0760    38.0300 h1         1 A1C       0.061950
     52 H16         -9.4060   -16.4330    37.4050 h1         1 A1C       0.061950
     53 H17         -9.4630   -18.8800    37.2810 h1         1 A1C       0.054200
     54 H18         -7.9190   -18.9120    36.4110 h1         1 A1C       0.054200
     55 H19         -9.4880   -17.4220    33.5120 h1         1 A1C       0.054200
     56 H20         -7.9320   -18.0140    34.1220 h1         1 A1C       0.054200
     57 H21         -7.9370   -15.5930    34.1170 h1         1 A1C       0.061950
     58 H22         -9.4230   -15.5140    35.0530 h1         1 A1C       0.061950
     59 H23         -5.1870   -13.4500    33.0040 hn         1 A1C       0.351000
     60 H24         -3.5460   -12.0320    31.8400 h4         1 A1C       0.147000
     61 C28         -4.5950   -14.5100    35.5140 cf         1 A1C      -0.051200
     62 O1          -0.4490   -11.0580    34.3430 o          1 A1C      -0.579100
     63 CL23         0.9520   -14.0470    39.5580 cl         1 A1C      -0.195000
@<TRIPOS>BOND
     1     1     2 1   
     2     1    13 1   
     3     1    37 1   
     4     2     3 1   
     5     2    16 1   
     6     2    38 1   
     7     3     4 1   
     8     3    39 1   
     9     3    40 1   
    10     4    14 2   
    11     4    15 1   
    12     5    16 ar  
    13     5    17 ar  
    14     5    41 1   
    15     6     7 ar  
    16     6    17 ar  
    17     6    19 1   
    18     7    20 ar  
    19     7    42 1   
    20     8    13 1   
    21     8    21 1   
    22     8    36 2   
    23     9    10 ar  
    24     9    22 ar  
    25     9    43 1   
    26    10    11 ar  
    27    10    44 1   
    28    11    12 ar  
    29    11    63 1   
    30    12    23 ar  
    31    12    45 1   
    32    13    62 2   
    33    15    47 1   
    34    15    48 1   
    35    16    20 ar  
    36    17    18 1   
    37    20    49 1   
    38    21    22 1   
    39    21    25 2   
    40    22    23 ar  
    41    23    24 1   
    42    25    35 1   
    43    25    61 1   
    44    26    27 1   
    45    26    50 1   
    46    26    61 2   
    47    27    28 2   
    48    27    29 1   
    49    29    30 1   
    50    29    34 1   
    51    30    31 1   
    52    30    51 1   
    53    30    52 1   
    54    31    32 1   
    55    31    53 1   
    56    31    54 1   
    57    32    33 1   
    58    33    34 1   
    59    33    55 1   
    60    33    56 1   
    61    34    57 1   
    62    34    58 1   
    63    35    36 1   
    64    35    59 1   
    65    36    60 1   
    66    46    61 1   
@<TRIPOS>SUBSTRUCTURE
     1 A1C         1 TEMP              0 ****  ****    0 ROOT
