@<TRIPOS>MOLECULE
A1D
   66    70     1     0     0
SMALL
abcg2


@<TRIPOS>ATOM
      1 N1          -5.3200    10.5710    48.2420 ns         1 A1D      -0.372100
      2 N3          -7.3600    10.6540    41.2420 nu         1 A1D      -0.901200
      3 C4          -6.8250     9.4490    46.7450 ca         1 A1D      -0.111800
      4 C5          -7.4130     8.2460    46.3260 ca         1 A1D      -0.023000
      5 C6          -7.1360     7.0610    46.9710 ca         1 A1D      -0.153000
      6 C7          -5.4870    11.8060    47.6810 c          1 A1D       0.563200
      7 C8          -6.4100    11.8330    46.5580 cc         1 A1D      -0.284200
      8 C13         -8.8100    14.0720    41.3850 c6         1 A1D      -0.069400
      9 C15         -9.4820    11.7780    40.6200 c6         1 A1D      -0.074400
     10 C17         -7.4210     9.5910    40.3090 ca         1 A1D       0.323000
     11 C20         -7.6820     7.5890    38.2950 ca         1 A1D      -0.043300
     12 C21         -8.0600     7.3500    39.6160 ca         1 A1D      -0.061000
     13 C22         -7.9420     8.3210    40.6000 ca         1 A1D      -0.185600
     14 C24         -7.6170     5.1100    37.5080 cx         1 A1D      -0.116400
     15 C26         -8.2980     7.9580    42.0120 c          1 A1D       0.607700
     16 C1          -6.2570     7.0480    48.0570 ca         1 A1D      -0.051000
     17 C11         -8.4770    12.0920    42.8950 c6         1 A1D       0.116700
     18 C12         -7.9280    13.4470    42.4560 c6         1 A1D      -0.089400
     19 C14         -8.9450    13.1390    40.1920 c6         1 A1D      -0.072400
     20 C16         -8.6680    11.1110    41.7270 c6         1 A1D       0.171500
     21 C18         -7.0220     9.7880    38.9930 ca         1 A1D      -0.147200
     22 C19         -7.1600     8.8380    37.9940 ca         1 A1D      -0.048000
     23 C2          -5.6560     8.2100    48.4840 ca         1 A1D      -0.175000
     24 C23         -7.8200     6.5750    37.2270 cx         1 A1D      -0.097400
     25 C25         -8.9850     5.6200    37.2130 cx         1 A1D      -0.116400
     26 C3          -5.9310     9.4140    47.8290 ca         1 A1D       0.100600
     27 C9          -7.0470    10.7270    46.1140 cd         1 A1D      -0.030400
     28 N2          -7.6230    11.5610    43.9440 ns         1 A1D      -0.503900
     29 N4          -9.5180     7.4340    42.1740 ns         1 A1D      -0.496900
     30 N5          -6.4070    11.0500    38.6070 no         1 A1D       0.702200
     31 O1          -4.9010    12.7910    48.1080 o          1 A1D      -0.548000
     32 O2          -9.2100    10.4870    45.1560 o          1 A1D      -0.596100
     33 O3          -7.5000     8.1160    42.9260 o          1 A1D      -0.598100
     34 O4          -6.9030    11.6440    37.6780 o          1 A1D      -0.386000
     35 O5          -5.4280    11.4080    39.2100 o          1 A1D      -0.386000
     36 H1          -4.6830    10.5150    49.0270 hn         1 A1D       0.328500
     37 H2          -6.7980    10.3620    42.0340 hn         1 A1D       0.463000
     38 H3          -8.0810     8.2430    45.4790 ha         1 A1D       0.140000
     39 H4          -7.5960     6.1430    46.6330 ha         1 A1D       0.118000
     40 H5          -6.5820    12.8020    46.1080 ha         1 A1D       0.208000
     41 H6          -8.3900    15.0310    41.0750 hc         1 A1D       0.043700
     42 H7          -9.7990    14.2850    41.8050 hc         1 A1D       0.043700
     43 H8         -10.5040    11.9010    40.9930 hc         1 A1D       0.043700
     44 H9          -9.5600    11.1050    39.7620 hc         1 A1D       0.043700
     45 H10         -8.4500     6.3780    39.8950 ha         1 A1D       0.124000
     46 H12         -7.3850     4.8200    38.5250 hc         1 A1D       0.076200
     47 H13         -6.0410     6.1180    48.5670 ha         1 A1D       0.116000
     48 H14         -9.4700    12.2500    43.3260 h1         1 A1D       0.074700
     49 H15         -6.9100    13.3280    42.0710 hc         1 A1D       0.053700
     50 H16         -7.8650    14.1000    43.3290 hc         1 A1D       0.053700
     51 H17         -7.9670    13.0350    39.7190 hc         1 A1D       0.052700
     52 H18         -9.6080    13.5710    39.4400 hc         1 A1D       0.052700
     53 H19         -9.2700    10.2750    42.1080 h1         1 A1D       0.037700
     54 H20         -6.8400     9.0620    36.9840 ha         1 A1D       0.146000
     55 H21         -4.9680     8.2000    49.3210 ha         1 A1D       0.119000
     56 H22         -7.4820     6.9170    36.2550 hc         1 A1D       0.090700
     57 H23         -9.6940     5.6850    38.0290 hc         1 A1D       0.076200
     58 H24         -9.4290     5.3950    36.2530 hc         1 A1D       0.076200
     59 H25        -10.9830     6.5380    43.3180 h1         1 A1D       0.048700
     60 H26         -9.3480     6.3040    43.9370 h1         1 A1D       0.048700
     61 H27        -10.1540     7.8660    44.1360 h1         1 A1D       0.048700
     62 H28         -6.6530    11.8400    43.9310 hn         1 A1D       0.325500
     63 H29        -10.1460     7.4120    41.3880 hn         1 A1D       0.320500
     64 C10         -8.0670    10.8920    45.0180 c          1 A1D       0.614300
     65 H11         -7.1060     4.5280    36.7520 hc         1 A1D       0.076200
     66 C27        -10.0200     7.0180    43.4630 c3         1 A1D       0.085300
@<TRIPOS>BOND
     1     1     6 1   
     2     1    26 1   
     3     1    36 1   
     4     2    10 1   
     5     2    20 1   
     6     2    37 1   
     7     3     4 ar  
     8     3    26 ar  
     9     3    27 1   
    10     4     5 ar  
    11     4    38 1   
    12     5    16 ar  
    13     5    39 1   
    14     6     7 1   
    15     6    31 2   
    16     7    27 2   
    17     7    40 1   
    18     8    18 1   
    19     8    19 1   
    20     8    41 1   
    21     8    42 1   
    22     9    19 1   
    23     9    20 1   
    24     9    43 1   
    25     9    44 1   
    26    10    13 ar  
    27    10    21 ar  
    28    11    12 ar  
    29    11    22 ar  
    30    11    24 1   
    31    12    13 ar  
    32    12    45 1   
    33    13    15 1   
    34    14    24 1   
    35    14    25 1   
    36    14    46 1   
    37    14    65 1   
    38    15    29 1   
    39    15    33 2   
    40    16    23 ar  
    41    16    47 1   
    42    17    18 1   
    43    17    20 1   
    44    17    28 1   
    45    17    48 1   
    46    18    49 1   
    47    18    50 1   
    48    19    51 1   
    49    19    52 1   
    50    20    53 1   
    51    21    22 ar  
    52    21    30 1   
    53    22    54 1   
    54    23    26 ar  
    55    23    55 1   
    56    24    25 1   
    57    24    56 1   
    58    25    57 1   
    59    25    58 1   
    60    27    64 1   
    61    28    62 1   
    62    28    64 1   
    63    29    63 1   
    64    29    66 1   
    65    30    34 1   
    66    30    35 1   
    67    32    64 2   
    68    59    66 1   
    69    60    66 1   
    70    61    66 1   
@<TRIPOS>SUBSTRUCTURE
     1 A1D         1 TEMP              0 ****  ****    0 ROOT
