@<TRIPOS>MOLECULE
A1D
   65    68     1     0     0
SMALL
abcg2


@<TRIPOS>ATOM
      1 C11        -15.3070    -8.4960   -12.3860 c          1 A1D       0.640700
      2 O12        -16.0430    -8.5250   -13.3510 o          1 A1D      -0.556100
      3 C13        -15.6370    -7.7070   -11.1550 ca         1 A1D      -0.244600
      4 C14        -14.8340    -6.6700   -10.7070 ca         1 A1D       0.223000
      5 C15        -15.1060    -5.9050    -9.5810 ca         1 A1D      -0.127300
      6 C16        -16.2710    -6.2250    -8.8920 ca         1 A1D      -0.040000
      7 C18        -16.7970    -7.9550   -10.4370 ca         1 A1D       0.242000
      8 C21        -14.1420    -4.8320    -9.1380 c6         1 A1D      -0.009400
      9 C17        -17.1240    -7.2380    -9.3080 ca         1 A1D      -0.176000
     10 C22         -8.7910   -11.3140   -10.5970 c6         1 A1D      -0.098900
     11 C02        -12.2410   -10.3640   -13.2870 cc         1 A1D      -0.298600
     12 C03        -13.5500    -9.9060   -13.3080 cd         1 A1D       0.032600
     13 C04        -14.0730   -10.3580   -14.5320 cd         1 A1D       0.229900
     14 C10         -8.8400   -10.1730   -11.6110 c6         1 A1D       0.128700
     15 C23         -7.7040   -11.0420    -9.5710 c6         1 A1D       0.212300
     16 C25         -8.9780    -8.8920    -9.3990 c6         1 A1D       0.212300
     17 C26         -8.7520    -8.8030   -10.8990 c6         1 A1D      -0.098900
     18 C27        -12.9390    -5.4400    -8.4050 c6         1 A1D      -0.110400
     19 C28        -11.9810    -4.3420    -7.9680 c6         1 A1D       0.154100
     20 C30        -13.6950    -2.7530    -7.8410 c6         1 A1D       0.154100
     21 C31        -14.7610    -3.7610    -8.2420 c6         1 A1D      -0.110400
     22 C34         -9.2830   -10.7900    -6.5820 c3         1 A1D      -0.336400
     23 C35         -9.2490   -10.9370    -5.0710 c3         1 A1D      -0.063100
     24 F19        -13.7350    -6.3910   -11.4230 f          1 A1D      -0.169000
     25 F20        -17.6050    -8.9360   -10.8480 f          1 A1D      -0.155000
     26 N01        -12.0790   -11.0370   -14.4500 na         1 A1D       0.008800
     27 N05        -13.1610   -11.0480   -15.1960 nc         1 A1D      -0.483800
     28 N07        -14.1390    -9.1660   -12.2950 ns         1 A1D      -0.371100
     29 N09         -9.9510   -10.3060   -12.5430 ns         1 A1D      -0.499900
     30 N24         -7.9910    -9.8110    -8.8170 n3         1 A1D      -0.755500
     31 O08        -11.6310    -9.8180   -11.1060 o          1 A1D      -0.625100
     32 O29        -12.6150    -3.3650    -7.1740 os         1 A1D      -0.446000
     33 O33         -7.9620    -8.5130    -6.6750 o          1 A1D      -0.531500
     34 O36         -6.6660   -10.6500    -6.8720 o          1 A1D      -0.531500
     35 S32         -7.8620    -9.8760    -7.1820 s6         1 A1D       1.195100
     36 H1         -16.5380    -5.6720    -8.0030 ha         1 A1D       0.127000
     37 H2         -13.7670    -4.3200   -10.0310 hc         1 A1D       0.064700
     38 H3         -18.0270    -7.4660    -8.7570 ha         1 A1D       0.143000
     39 H4          -9.7510   -11.4380   -10.0920 hc         1 A1D       0.063200
     40 H5          -8.5690   -12.2540   -11.1040 hc         1 A1D       0.063200
     41 H6         -15.0570   -10.2160   -14.9440 h4         1 A1D       0.071100
     42 H7          -7.9570   -10.2690   -12.2430 h1         1 A1D       0.051700
     43 H8          -7.6200   -11.8960    -8.9000 h1         1 A1D       0.064200
     44 H9          -6.7350   -10.9410   -10.0690 h1         1 A1D       0.064200
     45 H10         -8.8430    -7.9050    -8.9620 h1         1 A1D       0.064200
     46 H11        -10.0030    -9.2130    -9.1950 h1         1 A1D       0.064200
     47 H12         -7.7610    -8.3810   -11.0750 hc         1 A1D       0.063200
     48 H13         -9.4650    -8.0950   -11.3180 hc         1 A1D       0.063200
     49 H14        -13.2930    -5.9980    -7.5330 hc         1 A1D       0.053950
     50 H15        -12.4020    -6.1440    -9.0440 hc         1 A1D       0.053950
     51 H16        -11.1680    -4.7580    -7.3710 h1         1 A1D       0.047200
     52 H17        -11.5320    -3.8790    -8.8590 h1         1 A1D       0.047200
     53 H18        -13.3420    -2.2200    -8.7370 h1         1 A1D       0.047200
     54 H19        -14.1100    -2.0090    -7.1600 h1         1 A1D       0.047200
     55 H20        -15.5750    -3.2430    -8.7550 hc         1 A1D       0.053950
     56 H21        -15.1810    -4.2070    -7.3350 hc         1 A1D       0.053950
     57 H22        -10.1700   -10.2480    -6.9140 h1         1 A1D       0.088700
     58 H23         -9.2730   -11.7610    -7.0790 h1         1 A1D       0.088700
     59 H24        -10.1250   -11.4980    -4.7470 hc         1 A1D       0.051367
     60 H25         -8.3650   -11.4800    -4.7400 hc         1 A1D       0.051367
     61 H26         -9.2710    -9.9700    -4.5720 hc         1 A1D       0.051367
     62 H27        -11.2770   -11.5700   -14.7510 hn         1 A1D       0.373000
     63 H28        -13.6020    -9.1180   -11.4380 hn         1 A1D       0.358500
     64 H29         -9.6980   -10.4760   -13.5020 hn         1 A1D       0.316500
     65 C06        -11.2410   -10.1490   -12.2230 c          1 A1D       0.655700
@<TRIPOS>BOND
     1     1     2 2   
     2     1     3 1   
     3     1    28 1   
     4     3     4 ar  
     5     3     7 ar  
     6     4     5 ar  
     7     4    24 1   
     8     5     6 ar  
     9     5     8 1   
    10     6     9 ar  
    11     6    36 1   
    12     7     9 ar  
    13     7    25 1   
    14     8    18 1   
    15     8    21 1   
    16     8    37 1   
    17     9    38 1   
    18    10    14 1   
    19    10    15 1   
    20    10    39 1   
    21    10    40 1   
    22    11    12 2   
    23    11    26 1   
    24    11    65 1   
    25    12    13 1   
    26    12    28 1   
    27    13    27 2   
    28    13    41 1   
    29    14    17 1   
    30    14    29 1   
    31    14    42 1   
    32    15    30 1   
    33    15    43 1   
    34    15    44 1   
    35    16    17 1   
    36    16    30 1   
    37    16    45 1   
    38    16    46 1   
    39    17    47 1   
    40    17    48 1   
    41    18    19 1   
    42    18    49 1   
    43    18    50 1   
    44    19    32 1   
    45    19    51 1   
    46    19    52 1   
    47    20    21 1   
    48    20    32 1   
    49    20    53 1   
    50    20    54 1   
    51    21    55 1   
    52    21    56 1   
    53    22    23 1   
    54    22    35 1   
    55    22    57 1   
    56    22    58 1   
    57    23    59 1   
    58    23    60 1   
    59    23    61 1   
    60    26    27 1   
    61    26    62 1   
    62    28    63 1   
    63    29    64 1   
    64    29    65 1   
    65    30    35 1   
    66    31    65 2   
    67    33    35 2   
    68    34    35 2   
@<TRIPOS>SUBSTRUCTURE
     1 A1D         1 TEMP              0 ****  ****    0 ROOT
