@<TRIPOS>MOLECULE
A1D
   22    22     1     0     0
SMALL
abcg2


@<TRIPOS>ATOM
      1 C10        112.8940   119.5150    87.0570 ce         1 A1D      -0.339200
      2 C03        112.4910   119.0840    84.6210 ca         1 A1D      -0.114800
      3 C04        112.2690   119.6820    83.3610 ca         1 A1D       0.168100
      4 C05        112.4350   117.6890    84.7100 ca         1 A1D      -0.048000
      5 C06        111.9990   118.8860    82.2480 ca         1 A1D      -0.208000
      6 C07        112.1670   116.9000    83.6080 ca         1 A1D      -0.154000
      7 C08        111.9500   117.5070    82.3770 ca         1 A1D      -0.053000
      8 C09        112.7730   119.9160    85.7790 cf         1 A1D      -0.066200
      9 C11        112.1030   121.6830    82.0840 c3         1 A1D       0.149900
     10 C12        113.1920   120.5080    88.0770 c          1 A1D       0.570100
     11 O01        112.3270   121.0190    83.3140 os         1 A1D      -0.345100
     12 O02        113.3230   120.2680    89.2590 o          1 A1D      -0.524100
     13 H1         112.7760   118.4850    87.3740 ha         1 A1D       0.195000
     14 H2         112.6130   117.2120    85.6640 ha         1 A1D       0.120000
     15 H3         111.8270   119.3280    81.2760 ha         1 A1D       0.119000
     16 H4         112.1320   115.8240    83.7040 ha         1 A1D       0.120000
     17 H5         111.7400   116.9050    81.5030 ha         1 A1D       0.114000
     18 H6         112.8990   120.9770    85.5890 ha         1 A1D       0.185000
     19 H7         112.1820   122.7460    82.2940 h1         1 A1D       0.044367
     20 H8         112.8500   121.4140    81.3340 h1         1 A1D       0.044367
     21 H9         111.1070   121.4750    81.6870 h1         1 A1D       0.044367
     22 H10        113.2950   121.5410    87.6950 h4         1 A1D      -0.021800
@<TRIPOS>BOND
     1     1     8 2   
     2     1    10 1   
     3     1    13 1   
     4     2     3 ar  
     5     2     4 ar  
     6     2     8 1   
     7     3     5 ar  
     8     3    11 1   
     9     4     6 ar  
    10     4    14 1   
    11     5     7 ar  
    12     5    15 1   
    13     6     7 ar  
    14     6    16 1   
    15     7    17 1   
    16     8    18 1   
    17     9    11 1   
    18     9    19 1   
    19     9    20 1   
    20     9    21 1   
    21    10    12 2   
    22    10    22 1   
@<TRIPOS>SUBSTRUCTURE
     1 A1D         1 TEMP              0 ****  ****    0 ROOT
