@<TRIPOS>MOLECULE
A1D
   46    49     1     0     0
SMALL
abcg2


@<TRIPOS>ATOM
      1 C13        131.9920   157.1190   122.3200 ca         1 A1D       0.087600
      2 C15        130.3770   157.0620   120.5640 ca         1 A1D      -0.090000
      3 C17        130.8420   159.1450   121.7150 ca         1 A1D      -0.047300
      4 C01        133.7510   161.9270   130.1690 ca         1 A1D      -0.116000
      5 C02        134.7980   162.5160   129.4390 ca         1 A1D      -0.060300
      6 C03        134.9230   162.2420   128.0870 ca         1 A1D      -0.080000
      7 C04        133.9920   161.3900   127.5020 ca         1 A1D      -0.167000
      8 C05        132.9470   160.8110   128.2310 ca         1 A1D       0.093400
      9 C06        132.8170   161.0790   129.6010 ca         1 A1D      -0.013300
     10 C08        132.4760   159.9400   126.2740 cc         1 A1D       0.389100
     11 C12        131.7880   158.4860   122.5090 ca         1 A1D      -0.064300
     12 C14        131.3010   156.4020   121.3570 ca         1 A1D      -0.093000
     13 C16        130.1540   158.4170   120.7480 ca         1 A1D      -0.101000
     14 C18        130.5560   160.6070   121.9000 c3         1 A1D      -0.056800
     15 C23        132.5610   155.5620   124.1740 c          1 A1D       0.561000
     16 N09        132.1110   159.9970   127.5040 nd         1 A1D      -0.515100
     17 N19        132.8940   156.4210   123.1560 n          1 A1D      -0.117000
     18 N20        134.2300   156.5190   123.0290 n2         1 A1D      -0.117600
     19 N21        134.7600   155.7900   123.8990 n2         1 A1D      -0.120600
     20 N22        133.8010   155.1930   124.6110 n          1 A1D      -0.184800
     21 S07        133.8950   160.8720   125.8510 ss         1 A1D       0.000800
     22 S10        131.5810   158.9880   125.1250 ss         1 A1D      -0.178200
     23 H1         129.8290   156.5190   119.8070 ha         1 A1D       0.124000
     24 H2         135.2510   164.3590   130.4470 hc         1 A1D       0.044700
     25 H3         136.1810   162.9870   131.0210 hc         1 A1D       0.044700
     26 H4         136.5770   163.7330   129.4730 hc         1 A1D       0.044700
     27 H5         133.6720   162.1480   131.2270 ha         1 A1D       0.115000
     28 H6         135.7220   162.6810   127.5040 ha         1 A1D       0.123000
     29 H7         133.5420   158.8500   123.7210 h1         1 A1D       0.084200
     30 H8         132.5890   160.2880   123.3550 h1         1 A1D       0.084200
     31 H9         131.4900   155.3440   121.2310 ha         1 A1D       0.132000
     32 H10        129.4230   158.9240   120.1300 ha         1 A1D       0.120000
     33 H11        130.2920   160.8380   122.9330 hc         1 A1D       0.051033
     34 H12        131.4190   161.2220   121.6400 hc         1 A1D       0.051033
     35 H13        129.7270   160.9220   121.2690 hc         1 A1D       0.051033
     36 H14        135.1660   154.2180   125.8040 h1         1 A1D       0.060700
     37 H15        133.6530   154.6460   126.6180 h1         1 A1D       0.060700
     38 H16        133.6920   153.2930   125.4680 h1         1 A1D       0.060700
     39 H17        131.7470   159.3750   130.3560 hc         1 A1D       0.050033
     40 H18        131.7600   160.7670   131.4400 hc         1 A1D       0.050033
     41 H19        130.7310   160.7600   130.0070 hc         1 A1D       0.050033
     42 C11        132.5290   159.2250   123.5850 c3         1 A1D       0.070900
     43 O24        131.4690   155.2210   124.5750 o          1 A1D      -0.514000
     44 C25        134.0890   154.2820   125.6910 c3         1 A1D       0.125300
     45 C27        131.7070   160.4640   130.3950 c3         1 A1D      -0.042800
     46 C26        135.7550   163.4460   130.1280 c3         1 A1D      -0.048800
@<TRIPOS>BOND
     1     1    11 ar  
     2     1    12 ar  
     3     1    17 1   
     4     2    12 ar  
     5     2    13 ar  
     6     2    23 1   
     7     3    11 ar  
     8     3    13 ar  
     9     3    14 1   
    10     4     5 ar  
    11     4     9 ar  
    12     4    27 1   
    13     5     6 ar  
    14     5    46 1   
    15     6     7 ar  
    16     6    28 1   
    17     7     8 ar  
    18     7    21 1   
    19     8     9 ar  
    20     8    16 1   
    21     9    45 1   
    22    10    16 2   
    23    10    21 1   
    24    10    22 1   
    25    11    42 1   
    26    12    31 1   
    27    13    32 1   
    28    14    33 1   
    29    14    34 1   
    30    14    35 1   
    31    15    17 1   
    32    15    20 1   
    33    15    43 2   
    34    17    18 1   
    35    18    19 2   
    36    19    20 1   
    37    20    44 1   
    38    22    42 1   
    39    24    46 1   
    40    25    46 1   
    41    26    46 1   
    42    29    42 1   
    43    30    42 1   
    44    36    44 1   
    45    37    44 1   
    46    38    44 1   
    47    39    45 1   
    48    40    45 1   
    49    41    45 1   
@<TRIPOS>SUBSTRUCTURE
     1 A1D         1 TEMP              0 ****  ****    0 ROOT
