@<TRIPOS>MOLECULE
A1D
   59    63     1     0     0
SMALL
abcg2


@<TRIPOS>ATOM
      1 C10        123.8870   142.1940   106.9050 c3         1 A1D      -0.089100
      2 C13        122.1240   137.1070   107.4530 ce         1 A1D      -0.293400
      3 C17        120.6610   136.0430   109.7190 c6         1 A1D      -0.034000
      4 C20        119.4210   136.8990   109.4440 c3         1 A1D      -0.089100
      5 C21        121.3990   138.5820   105.6220 cc         1 A1D       0.150300
      6 C22        120.7710   138.5290   104.4220 cd         1 A1D      -0.152000
      7 C24        119.7710   140.0460   105.7170 cc         1 A1D       0.165500
      8 C26        118.9850   141.0630   106.3900 ca         1 A1D      -0.099500
      9 C28        118.5270   142.4300   108.3110 ca         1 A1D       0.118000
     10 C01        122.5630   137.8710   106.2320 c6         1 A1D       0.048400
     11 C02        123.6220   138.8660   106.6250 ce         1 A1D      -0.293400
     12 C03        123.7800   139.2520   107.9000 c2         1 A1D       0.152900
     13 C04        124.7120   140.3150   108.3640 c6         1 A1D      -0.036700
     14 C05        125.0770   141.2920   107.2420 c6         1 A1D      -0.034000
     15 C06        125.4900   140.4720   106.0170 c6         1 A1D      -0.174400
     16 C07        124.4480   139.4740   105.5800 c          1 A1D       0.594300
     17 O08        124.3150   139.1500   104.4140 o          1 A1D      -0.522100
     18 C09        126.2450   142.1620   107.6950 c3         1 A1D      -0.089100
     19 O11        123.0980   138.6790   108.9180 os         1 A1D      -0.229200
     20 C12        122.3620   137.5680   108.6910 c2         1 A1D       0.152900
     21 C14        121.3640   135.8680   107.2800 c          1 A1D       0.594300
     22 O15        121.1140   135.4420   106.1670 o          1 A1D      -0.522100
     23 C16        120.9560   135.1280   108.5290 c6         1 A1D      -0.174400
     24 C18        121.8850   136.9320   109.9500 c6         1 A1D      -0.036700
     25 C19        120.4110   135.1970   110.9640 c3         1 A1D      -0.089100
     26 C23        119.7130   139.4800   104.4800 cd         1 A1D      -0.157000
     27 O25        120.7970   139.4990   106.4060 os         1 A1D      -0.246000
     28 C27        119.2960   141.4590   107.6930 ca         1 A1D      -0.091000
     29 C29        117.4510   143.0280   107.6740 ca         1 A1D      -0.102000
     30 C30        117.1480   142.6290   106.3790 ca         1 A1D      -0.102000
     31 C31        117.9010   141.6600   105.7400 ca         1 A1D      -0.097000
     32 CL32       118.9270   142.9080   109.9300 cl         1 A1D      -0.209000
     33 H103       123.5930   142.7830   107.7750 hc         1 A1D       0.041617
     34 H101       124.1480   142.8890   106.1060 hc         1 A1D       0.041617
     35 H102       123.0090   141.6360   106.5760 hc         1 A1D       0.041617
     36 H201       119.1990   137.5360   110.3020 hc         1 A1D       0.041617
     37 H202       119.5370   137.5510   108.5760 hc         1 A1D       0.041617
     38 H203       118.5520   136.2640   109.2680 hc         1 A1D       0.041617
     39 H221       121.0310   137.8880   103.5950 ha         1 A1D       0.152000
     40 H011       122.9560   137.1840   105.4790 hc         1 A1D       0.106700
     41 H042       125.6200   139.8360   108.7510 hc         1 A1D       0.071200
     42 H041       124.2640   140.8510   109.2050 hc         1 A1D       0.071200
     43 H062       126.3990   139.9050   106.2540 hc         1 A1D       0.072700
     44 H061       125.7340   141.1220   105.1740 hc         1 A1D       0.072700
     45 H091       125.9750   142.7460   108.5770 hc         1 A1D       0.041617
     46 H092       127.1190   141.5580   107.9470 hc         1 A1D       0.041617
     47 H093       126.5340   142.8610   106.9080 hc         1 A1D       0.041617
     48 H161       120.0970   134.4920   108.3020 hc         1 A1D       0.072700
     49 H162       121.7860   134.4560   108.7850 hc         1 A1D       0.072700
     50 H182       122.7070   136.3380   110.3680 hc         1 A1D       0.071200
     51 H181       121.6630   137.7080   110.6880 hc         1 A1D       0.071200
     52 H191       120.2120   135.8280   111.8320 hc         1 A1D       0.041617
     53 H192       119.5460   134.5460   110.8210 hc         1 A1D       0.041617
     54 H193       121.2700   134.5650   111.1960 hc         1 A1D       0.041617
     55 H231       119.0030   139.7060   103.7000 ha         1 A1D       0.140000
     56 H271       120.1280   141.0190   108.2250 ha         1 A1D       0.139000
     57 H291       116.8620   143.7850   108.1720 ha         1 A1D       0.130000
     58 H301       116.3120   143.0830   105.8650 ha         1 A1D       0.119000
     59 H311       117.6440   141.3660   104.7300 ha         1 A1D       0.121000
@<TRIPOS>BOND
     1     1    14 1   
     2     1    33 1   
     3     1    34 1   
     4     1    35 1   
     5     2    10 1   
     6     2    20 2   
     7     2    21 1   
     8     3     4 1   
     9     3    23 1   
    10     3    24 1   
    11     3    25 1   
    12     4    36 1   
    13     4    37 1   
    14     4    38 1   
    15     5     6 2   
    16     5    10 1   
    17     5    27 1   
    18     6    26 1   
    19     6    39 1   
    20     7     8 1   
    21     7    26 2   
    22     7    27 1   
    23     8    28 ar  
    24     8    31 ar  
    25     9    28 ar  
    26     9    29 ar  
    27     9    32 1   
    28    10    11 1   
    29    10    40 1   
    30    11    12 2   
    31    11    16 1   
    32    12    13 1   
    33    12    19 1   
    34    13    14 1   
    35    13    41 1   
    36    13    42 1   
    37    14    15 1   
    38    14    18 1   
    39    15    16 1   
    40    15    43 1   
    41    15    44 1   
    42    16    17 2   
    43    18    45 1   
    44    18    46 1   
    45    18    47 1   
    46    19    20 1   
    47    20    24 1   
    48    21    22 2   
    49    21    23 1   
    50    23    48 1   
    51    23    49 1   
    52    24    50 1   
    53    24    51 1   
    54    25    52 1   
    55    25    53 1   
    56    25    54 1   
    57    26    55 1   
    58    28    56 1   
    59    29    30 ar  
    60    29    57 1   
    61    30    31 ar  
    62    30    58 1   
    63    31    59 1   
@<TRIPOS>SUBSTRUCTURE
     1 A1D         1 TEMP              0 ****  ****    0 ROOT
