@<TRIPOS>MOLECULE
A1D
   41    44     1     0     0
SMALL
abcg2


@<TRIPOS>ATOM
      1 N12        -17.9750   -66.5310    41.6720 nh         1 A1D      -0.805100
      2 C13        -17.8850   -65.6830    42.7930 ca         1 A1D       0.245000
      3 C15        -18.8710   -67.5890    43.9780 c6         1 A1D      -0.027100
      4 C17        -19.2180   -67.2910    41.4910 c6         1 A1D       0.236800
      5 C20        -17.3500   -63.5930    43.8660 ca         1 A1D      -0.181000
      6 C21        -17.4560   -64.3680    42.7170 ca         1 A1D      -0.089000
      7 C01        -13.6860   -66.0190    42.1530 ca         1 A1D       0.126000
      8 C02        -12.9140   -65.8330    41.0020 ca         1 A1D      -0.107000
      9 C03        -13.5210   -65.9090    39.7770 ca         1 A1D      -0.097000
     10 C04        -14.9080   -66.1610    39.6640 ca         1 A1D       0.078000
     11 C05        -15.6720   -66.2610    40.8470 ca         1 A1D      -0.183000
     12 C06        -15.0320   -66.2280    42.1010 ca         1 A1D      -0.089000
     13 C07        -17.0840   -66.4890    40.6420 ca         1 A1D       0.436900
     14 C09        -16.7070   -66.6620    38.3890 ca         1 A1D       0.413900
     15 C14        -18.2830   -66.2140    44.0230 ca         1 A1D      -0.065300
     16 C16        -19.8860   -67.5940    42.8350 c6         1 A1D      -0.091400
     17 C18        -18.2070   -65.4340    45.1610 ca         1 A1D      -0.126000
     18 C19        -17.7190   -64.1260    45.0990 ca         1 A1D       0.133100
     19 C23        -17.1820   -62.1280    46.2590 c3         1 A1D       0.147900
     20 N08        -17.5510   -66.7310    39.4430 nb         1 A1D      -0.323000
     21 N10        -15.4360   -66.3360    38.4320 nb         1 A1D      -0.278000
     22 N11        -17.2730   -66.8970    37.1840 nv         1 A1D      -1.058900
     23 O22        -17.6590   -63.4570    46.2670 os         1 A1D      -0.340100
     24 H151       -19.3450   -67.8460    44.9260 hc         1 A1D       0.058200
     25 H152       -18.0930   -68.3370    43.7900 hc         1 A1D       0.058200
     26 H172       -19.9080   -66.7560    40.8350 h1         1 A1D       0.055200
     27 H171       -18.9550   -68.2220    40.9880 h1         1 A1D       0.055200
     28 H201       -16.9940   -62.5770    43.7730 ha         1 A1D       0.122000
     29 H211       -17.1830   -63.9320    41.7640 ha         1 A1D       0.127000
     30 H021       -11.8500   -65.6520    41.0850 ha         1 A1D       0.131000
     31 H031       -12.9420   -65.7990    38.8700 ha         1 A1D       0.135000
     32 H061       -15.5780   -66.3770    43.0210 ha         1 A1D       0.142000
     33 H161       -20.6550   -66.8510    43.0520 hc         1 A1D       0.051700
     34 H162       -20.3910   -68.5590    42.7630 hc         1 A1D       0.051700
     35 H181       -18.5260   -65.8390    46.1150 ha         1 A1D       0.130000
     36 H231       -17.2090   -61.7830    47.2900 h1         1 A1D       0.041700
     37 H232       -16.1530   -62.0630    45.8950 h1         1 A1D       0.041700
     38 H233       -17.8110   -61.4700    45.6540 h1         1 A1D       0.041700
     39 H112       -16.6690   -67.0560    36.3960 hn         1 A1D       0.491000
     40 H111       -18.1760   -67.3390    37.1590 hn         1 A1D       0.491000
     41 F24        -13.0690   -65.9920    43.3480 f          1 A1D      -0.181000
@<TRIPOS>BOND
     1     1     2 1   
     2     1     4 1   
     3     1    13 1   
     4     2     6 ar  
     5     2    15 ar  
     6     3    15 1   
     7     3    16 1   
     8     3    24 1   
     9     3    25 1   
    10     4    16 1   
    11     4    26 1   
    12     4    27 1   
    13     5     6 ar  
    14     5    18 ar  
    15     5    28 1   
    16     6    29 1   
    17     7     8 ar  
    18     7    12 ar  
    19     7    41 1   
    20     8     9 ar  
    21     8    30 1   
    22     9    10 ar  
    23     9    31 1   
    24    10    11 ar  
    25    10    21 ar  
    26    11    12 ar  
    27    11    13 ar  
    28    12    32 1   
    29    13    20 ar  
    30    14    20 ar  
    31    14    21 ar  
    32    14    22 1   
    33    15    17 ar  
    34    16    33 1   
    35    16    34 1   
    36    17    18 ar  
    37    17    35 1   
    38    18    23 1   
    39    19    23 1   
    40    19    36 1   
    41    19    37 1   
    42    19    38 1   
    43    22    39 1   
    44    22    40 1   
@<TRIPOS>SUBSTRUCTURE
     1 A1D         1 TEMP              0 ****  ****    0 ROOT
