@<TRIPOS>MOLECULE
A1D
   45    49     1     0     0
SMALL
abcg2


@<TRIPOS>ATOM
      1 N1          19.5500    70.3170    42.3500 ns         1 A1D      -0.481500
      2 C4          15.9500    67.0670    41.8540 ca         1 A1D      -0.071000
      3 C5          17.2340    66.7140    41.4530 ca         1 A1D      -0.098300
      4 C6          18.4160    66.9080    42.3850 c6         1 A1D       0.243300
      5 C7          18.2270    66.1990    43.7120 ca         1 A1D      -0.100300
      6 C8          17.8250    64.8670    43.6900 ca         1 A1D      -0.093000
      7 C10         17.9040    64.7680    46.0890 ca         1 A1D       0.072100
      8 C13         18.9060    68.2580    45.0100 c6         1 A1D      -0.029100
      9 C15         18.9940    70.3650    43.5920 c          1 A1D       0.567000
     10 C17         17.6850    62.6990    47.1390 c6         1 A1D       0.117600
     11 C20         16.3570    66.0140    39.3320 ca         1 A1D       0.096500
     12 C11         18.2910    66.0960    46.1100 ca         1 A1D      -0.107000
     13 C12         18.4590    66.8240    44.9360 ca         1 A1D      -0.070300
     14 C14         18.3550    69.0090    43.8130 c5         1 A1D       0.019700
     15 C16         19.4020    69.0730    41.7390 c          1 A1D       0.622000
     16 C18         16.7730    62.3220    45.9970 c6         1 A1D       0.116600
     17 C19         17.4340    66.1830    40.1890 ca         1 A1D      -0.071000
     18 C2          15.0650    66.3640    39.7070 ca         1 A1D       0.126100
     19 C3          14.8900    66.9020    40.9830 ca         1 A1D       0.096500
     20 C9          17.6630    64.1450    44.8580 ca         1 A1D       0.061100
     21 N2          18.6860    68.3110    42.5960 n          1 A1D      -0.425800
     22 O1          14.0180    66.1630    38.8860 os         1 A1D      -0.340100
     23 O2          19.0090    71.2890    44.3670 o          1 A1D      -0.498000
     24 O3          19.8410    68.7610    40.6570 o          1 A1D      -0.539000
     25 O4          17.7620    64.1110    47.2610 os         1 A1D      -0.327100
     26 O5          17.2670    62.8530    44.7770 os         1 A1D      -0.324100
     27 CL1         13.2940    67.3280    41.4830 cl         1 A1D      -0.175500
     28 CL2         16.6070    65.3260    37.7690 cl         1 A1D      -0.175500
     29 H11         20.0660    71.0740    41.9240 hn         1 A1D       0.358500
     30 H5          19.2950    66.4780    41.8950 h1         1 A1D       0.085700
     31 H6          17.6280    64.3690    42.7470 ha         1 A1D       0.137000
     32 H8          18.5620    68.7240    45.9340 hc         1 A1D       0.073200
     33 H9          19.9990    68.3150    45.0060 hc         1 A1D       0.073200
     34 H13         18.6860    62.2810    46.9820 h1         1 A1D       0.070200
     35 H12         17.2960    62.3150    48.0800 h1         1 A1D       0.070200
     36 H2          12.8740    66.9520    37.4080 h1         1 A1D       0.043700
     37 H1          13.4250    68.1470    38.5970 h1         1 A1D       0.043700
     38 H3          14.5570    67.5110    37.3810 h1         1 A1D       0.043700
     39 H7          18.4660    66.5730    47.0680 ha         1 A1D       0.132000
     40 H10         17.2720    69.1430    43.9190 h1         1 A1D       0.093700
     41 H15         16.7330    61.2400    45.8830 h1         1 A1D       0.070700
     42 H14         15.7570    62.6870    46.1820 h1         1 A1D       0.070700
     43 H16         18.4270    65.8960    39.8680 ha         1 A1D       0.138500
     44 H4          15.7680    67.4600    42.8460 ha         1 A1D       0.138500
     45 C1          13.7130    67.2620    38.0270 c3         1 A1D       0.148900
@<TRIPOS>BOND
     1     1     9 1   
     2     1    15 1   
     3     1    29 1   
     4     2     3 ar  
     5     2    19 ar  
     6     2    44 1   
     7     3     4 1   
     8     3    17 ar  
     9     4     5 1   
    10     4    21 1   
    11     4    30 1   
    12     5     6 ar  
    13     5    13 ar  
    14     6    20 ar  
    15     6    31 1   
    16     7    12 ar  
    17     7    20 ar  
    18     7    25 1   
    19     8    13 1   
    20     8    14 1   
    21     8    32 1   
    22     8    33 1   
    23     9    14 1   
    24     9    23 2   
    25    10    16 1   
    26    10    25 1   
    27    10    34 1   
    28    10    35 1   
    29    11    17 ar  
    30    11    18 ar  
    31    11    28 1   
    32    12    13 ar  
    33    12    39 1   
    34    14    21 1   
    35    14    40 1   
    36    15    21 1   
    37    15    24 2   
    38    16    26 1   
    39    16    41 1   
    40    16    42 1   
    41    17    43 1   
    42    18    19 ar  
    43    18    22 1   
    44    19    27 1   
    45    20    26 1   
    46    22    45 1   
    47    36    45 1   
    48    37    45 1   
    49    38    45 1   
@<TRIPOS>SUBSTRUCTURE
     1 A1D         1 TEMP              0 ****  ****    0 ROOT
