@<TRIPOS>MOLECULE
A1D
   54    55     1     0     0
SMALL
abcg2


@<TRIPOS>ATOM
      1 C1          -3.7000   -22.5930    -4.7800 c3         1 A1D      -0.089100
      2 C2          -5.0220   -23.3230    -4.5800 c3         1 A1D      -0.074400
      3 C3          -6.2560   -22.4830    -4.9030 c3         1 A1D      -0.074400
      4 C4          -6.3620   -22.0800    -6.3690 c3         1 A1D      -0.074400
      5 C5          -7.5950   -21.2450    -6.7110 c3         1 A1D      -0.073400
      6 C6          -8.9320   -21.9750    -6.5100 c3         1 A1D      -0.074400
      7 C7          -9.6900   -21.6150    -5.2300 c3         1 A1D      -0.075400
      8 C8         -10.2620   -20.2020    -5.2460 c3         1 A1D      -0.075400
      9 C9         -10.9900   -19.8090    -3.9620 c3         1 A1D      -0.074400
     10 C10        -12.2090   -20.6630    -3.6130 c3         1 A1D      -0.067400
     11 C11        -13.2800   -20.7460    -4.6990 c3         1 A1D      -0.104400
     12 C12        -13.7850   -19.4070    -5.2070 c3         1 A1D       0.169600
     13 O1         -14.2020   -18.5380    -4.1450 os         1 A1D      -0.446100
     14 C13        -15.4010   -18.7060    -3.6100 c          1 A1D       0.611700
     15 O2         -16.2100   -19.5090    -4.0120 o          1 A1D      -0.495000
     16 C14        -15.6510   -17.7890    -2.4700 ca         1 A1D      -0.170600
     17 C15        -14.6390   -16.9540    -1.9540 ca         1 A1D      -0.042000
     18 C16        -14.8740   -16.1060    -0.8910 ca         1 A1D      -0.135000
     19 C17        -16.1570   -16.1080    -0.3540 ca         1 A1D      -0.057200
     20 N1         -16.7380   -15.4190     0.6690 na         1 A1D      -0.317600
     21 C18        -18.0290   -15.8330     0.7470 cc         1 A1D       0.413700
     22 N2         -18.3390   -16.7340    -0.1380 nd         1 A1D      -0.559100
     23 C19        -17.1800   -16.9340    -0.8520 ca         1 A1D       0.044400
     24 C20        -16.9260   -17.7860    -1.9180 ca         1 A1D       0.018000
     25 H3          -2.8580   -23.2090    -4.4610 hc         1 A1D       0.030700
     26 H1          -3.5300   -22.3290    -5.8240 hc         1 A1D       0.030700
     27 H2          -3.6710   -21.6700    -4.1970 hc         1 A1D       0.030700
     28 H4          -5.0350   -24.2320    -5.1900 hc         1 A1D       0.035700
     29 H5          -5.0880   -23.6580    -3.5410 hc         1 A1D       0.035700
     30 H6          -7.1460   -23.0520    -4.6150 hc         1 A1D       0.037700
     31 H7          -6.2570   -21.5830    -4.2780 hc         1 A1D       0.037700
     32 H9          -5.4720   -21.5140    -6.6590 hc         1 A1D       0.036700
     33 H8          -6.3600   -22.9840    -6.9890 hc         1 A1D       0.036700
     34 H11         -7.5750   -20.3220    -6.1220 hc         1 A1D       0.037200
     35 H10         -7.5080   -20.9270    -7.7530 hc         1 A1D       0.037200
     36 H13         -9.5930   -21.7730    -7.3580 hc         1 A1D       0.036700
     37 H12         -8.7550   -23.0550    -6.5290 hc         1 A1D       0.036700
     38 H14        -10.5030   -22.3350    -5.0960 hc         1 A1D       0.038700
     39 H15         -9.0360   -21.7310    -4.3600 hc         1 A1D       0.038700
     40 H17         -9.4570   -19.4800    -5.4130 hc         1 A1D       0.035700
     41 H16        -10.9320   -20.0970    -6.1060 hc         1 A1D       0.035700
     42 H19        -10.2870   -19.8590    -3.1250 hc         1 A1D       0.039200
     43 H18        -11.2890   -18.7590    -4.0310 hc         1 A1D       0.039200
     44 H20        -11.8920   -21.6810    -3.3740 hc         1 A1D       0.041200
     45 H21        -12.6530   -20.2760    -2.6920 hc         1 A1D       0.041200
     46 H23        -12.8940   -21.2810    -5.5720 hc         1 A1D       0.053700
     47 H22        -14.1170   -21.3450    -4.3350 hc         1 A1D       0.053700
     48 H25        -12.9910   -18.8560    -5.7100 h1         1 A1D       0.059700
     49 H24        -14.5950   -19.5480    -5.9240 h1         1 A1D       0.059700
     50 H26        -13.6510   -16.9730    -2.3910 ha         1 A1D       0.131000
     51 H27        -14.0910   -15.4700    -0.5000 ha         1 A1D       0.121000
     52 H28        -16.3030   -14.7290     1.2620 hn         1 A1D       0.360000
     53 H29        -18.7020   -15.4280     1.4880 h5         1 A1D       0.063800
     54 H30        -17.7060   -18.4260    -2.3090 ha         1 A1D       0.152000
@<TRIPOS>BOND
     1     1     2 1   
     2     1    25 1   
     3     1    26 1   
     4     1    27 1   
     5     2     3 1   
     6     2    28 1   
     7     2    29 1   
     8     3     4 1   
     9     3    30 1   
    10     3    31 1   
    11     4     5 1   
    12     4    32 1   
    13     4    33 1   
    14     5     6 1   
    15     5    34 1   
    16     5    35 1   
    17     6     7 1   
    18     6    36 1   
    19     6    37 1   
    20     7     8 1   
    21     7    38 1   
    22     7    39 1   
    23     8     9 1   
    24     8    40 1   
    25     8    41 1   
    26     9    10 1   
    27     9    42 1   
    28     9    43 1   
    29    10    11 1   
    30    10    44 1   
    31    10    45 1   
    32    11    12 1   
    33    11    46 1   
    34    11    47 1   
    35    12    13 1   
    36    12    48 1   
    37    12    49 1   
    38    13    14 1   
    39    14    15 2   
    40    14    16 1   
    41    16    17 ar  
    42    16    24 ar  
    43    17    18 ar  
    44    17    50 1   
    45    18    19 ar  
    46    18    51 1   
    47    19    20 1   
    48    19    23 ar  
    49    20    21 1   
    50    20    52 1   
    51    21    22 2   
    52    21    53 1   
    53    22    23 1   
    54    23    24 ar  
    55    24    54 1   
@<TRIPOS>SUBSTRUCTURE
     1 A1D         1 TEMP              0 ****  ****    0 ROOT
