@<TRIPOS>MOLECULE
A1D
   45    46     1     0     0
SMALL
abcg2


@<TRIPOS>ATOM
      1 C10        190.8060   166.6540   176.2530 ca         1 A1D      -0.164000
      2 N12        193.0320   166.5480   173.5920 n1         1 A1D      -0.425000
      3 C13        188.5580   164.4070   178.3080 c3         1 A1D       0.370300
      4 C20        189.7150   167.0740   182.9990 ca         1 A1D      -0.112600
      5 C21        190.2950   166.2710   183.9770 ca         1 A1D      -0.084500
      6 C22        189.5310   165.7840   185.0230 ca         1 A1D      -0.054500
      7 C01        191.0750   169.8630   179.8210 c3         1 A1D      -0.102100
      8 C02        190.6840   168.3990   179.5900 c3         1 A1D       0.182500
      9 C03        189.7450   168.3480   178.3750 c3         1 A1D       0.158600
     10 C05        189.9030   166.2270   177.2150 ca         1 A1D       0.191100
     11 C06        189.5370   164.8750   177.2690 ca         1 A1D      -0.215300
     12 C07        190.0780   163.9730   176.3640 ca         1 A1D      -0.030000
     13 C08        190.9840   164.3870   175.4040 ca         1 A1D      -0.112000
     14 C09        191.3390   165.7290   175.3600 ca         1 A1D       0.062000
     15 C11        192.2750   166.1820   174.3790 cg         1 A1D       0.311000
     16 C23        188.1850   166.1220   185.1060 ca         1 A1D      -0.127000
     17 C25        187.4680   166.8330   187.6130 c3         1 A1D       0.422000
     18 C29        187.5980   166.9270   184.1380 ca         1 A1D      -0.054500
     19 C30        188.3640   167.4000   183.0850 ca         1 A1D      -0.084500
     20 C31        191.8960   167.6090   179.2940 c1         1 A1D       0.278900
     21 F14        189.0040   164.6180   179.5530 f          1 A1D      -0.110333
     22 F15        187.3780   165.0260   178.2000 f          1 A1D      -0.110333
     23 F16        188.3170   163.0970   178.2030 f          1 A1D      -0.110333
     24 F26        186.8240   166.5240   188.7360 f          1 A1D      -0.096333
     25 F27        188.7550   167.0150   187.9050 f          1 A1D      -0.096333
     26 F28        187.0030   168.0030   187.1760 f          1 A1D      -0.096333
     27 N17        189.9910   167.8260   180.7250 ns         1 A1D      -0.504900
     28 N32        192.8370   167.0120   179.0150 n1         1 A1D      -0.422000
     29 O04        189.3040   167.0350   178.1070 os         1 A1D      -0.350100
     30 O19        191.7800   167.8110   182.0970 o          1 A1D      -0.574100
     31 S24        187.2020   165.4940   186.4440 ss         1 A1D      -0.183000
     32 H101       191.1130   167.6870   176.1750 ha         1 A1D       0.136000
     33 H211       191.3450   166.0190   183.9190 ha         1 A1D       0.132500
     34 H221       189.9820   165.1470   185.7710 ha         1 A1D       0.137500
     35 H012       191.7540   169.9620   180.6630 hc         1 A1D       0.060700
     36 H011       191.5590   170.2730   178.9360 hc         1 A1D       0.060700
     37 H013       190.1740   170.4400   180.0270 hc         1 A1D       0.060700
     38 H032       190.2240   168.8280   177.5220 h1         1 A1D       0.075700
     39 H031       188.8530   168.9260   178.6180 h1         1 A1D       0.075700
     40 H071       189.8020   162.9290   176.3990 ha         1 A1D       0.142000
     41 H081       191.4050   163.6790   174.7050 ha         1 A1D       0.140000
     42 H291       186.5510   167.1880   184.2050 ha         1 A1D       0.137500
     43 H301       187.8970   168.0490   182.3560 ha         1 A1D       0.132500
     44 H1         189.0620   167.4630   180.5710 hn         1 A1D       0.338500
     45 C18        190.5940   167.6010   181.9120 c          1 A1D       0.614700
@<TRIPOS>BOND
     1     1    10 ar  
     2     1    14 ar  
     3     1    32 1   
     4     2    15 3   
     5     3    11 1   
     6     3    21 1   
     7     3    22 1   
     8     3    23 1   
     9     4     5 ar  
    10     4    19 ar  
    11     4    45 1   
    12     5     6 ar  
    13     5    33 1   
    14     6    16 ar  
    15     6    34 1   
    16     7     8 1   
    17     7    35 1   
    18     7    36 1   
    19     7    37 1   
    20     8     9 1   
    21     8    20 1   
    22     8    27 1   
    23     9    29 1   
    24     9    38 1   
    25     9    39 1   
    26    10    11 ar  
    27    10    29 1   
    28    11    12 ar  
    29    12    13 ar  
    30    12    40 1   
    31    13    14 ar  
    32    13    41 1   
    33    14    15 1   
    34    16    18 ar  
    35    16    31 1   
    36    17    24 1   
    37    17    25 1   
    38    17    26 1   
    39    17    31 1   
    40    18    19 ar  
    41    18    42 1   
    42    19    43 1   
    43    20    28 3   
    44    27    44 1   
    45    27    45 1   
    46    30    45 2   
@<TRIPOS>SUBSTRUCTURE
     1 A1D         1 TEMP              0 ****  ****    0 ROOT
