@<TRIPOS>MOLECULE
A1D
   26    26     1     0     0
SMALL
abcg2


@<TRIPOS>ATOM
      1 C19          6.3970     3.6540    20.7000 c          1 A1D       0.720000
      2 O4           6.5090     3.6360    21.9410 o          1 A1D      -0.721500
      3 C20          5.7040     2.4160    20.1030 c5         1 A1D      -0.041300
      4 N4           5.6490     2.4050    18.6570 ns         1 A1D      -0.460900
      5 C21          5.8500     1.2120    18.0870 c          1 A1D       0.546000
      6 C22          6.0830     0.2030    19.2110 c5         1 A1D      -0.150700
      7 C23          6.4390     1.1020    20.3950 c5         1 A1D      -0.060400
      8 C24          7.0910    -0.8680    18.8230 c3         1 A1D      -0.049400
      9 C25          7.0990    -2.0980    19.7280 c3         1 A1D       0.106200
     10 C26          8.0370    -3.1270    19.1570 c2         1 A1D       0.380200
     11 N5           7.4570    -1.7510    21.0960 n8         1 A1D      -0.984200
     12 O6           5.8350     0.9690    16.8890 o          1 A1D      -0.628000
     13 N6           7.6380    -4.2600    18.7610 n2         1 A1D      -0.747100
     14 H24          4.6870     2.3640    20.5160 h1         1 A1D       0.031700
     15 H25          5.4470     3.2360    18.1240 hn         1 A1D       0.332500
     16 H26          5.1110    -0.2750    19.3950 hc         1 A1D       0.057700
     17 H27          6.1660     0.6770    21.3560 hc         1 A1D       0.056200
     18 H28          7.5190     1.2750    20.4050 hc         1 A1D       0.056200
     19 H29          6.8720    -1.2050    17.8060 hc         1 A1D       0.049700
     20 H30          8.0970    -0.4310    18.7920 hc         1 A1D       0.049700
     21 H31          6.0950    -2.5330    19.7360 h1         1 A1D       0.080700
     22 H32          9.0880    -2.8170    19.1350 h4         1 A1D      -0.049200
     23 H33          7.5160    -2.5870    21.6650 hn         1 A1D       0.393000
     24 H34          8.4200    -4.8160    18.4250 hn         1 A1D       0.361400
     25 H2           8.3740    -1.3210    21.1190 hn         1 A1D       0.393000
     26 OXT          6.7700     4.5390    19.9100 o          1 A1D      -0.721500
@<TRIPOS>BOND
     1     1     2 1   
     2     1     3 1   
     3     1    26 1   
     4     3     4 1   
     5     3     7 1   
     6     3    14 1   
     7     4     5 1   
     8     4    15 1   
     9     5     6 1   
    10     5    12 2   
    11     6     7 1   
    12     6     8 1   
    13     6    16 1   
    14     7    17 1   
    15     7    18 1   
    16     8     9 1   
    17     8    19 1   
    18     8    20 1   
    19     9    10 1   
    20     9    11 1   
    21     9    21 1   
    22    10    13 2   
    23    10    22 1   
    24    11    23 1   
    25    11    25 1   
    26    13    24 1   
@<TRIPOS>SUBSTRUCTURE
     1 A1D         1 TEMP              0 ****  ****    0 ROOT
