@<TRIPOS>MOLECULE
A1D
   61    64     1     0     0
SMALL
abcg2


@<TRIPOS>ATOM
      1 N1           4.6680   -19.5900    -8.7200 nb         1 A1D      -0.758000
      2 N3           1.3510   -18.5370   -11.6060 n7         1 A1D      -0.871400
      3 C4           8.0770   -17.3690    -9.9730 cp         1 A1D      -0.124000
      4 C5           8.8230   -17.7160   -11.1020 ca         1 A1D      -0.011000
      5 C6           9.9260   -16.9880   -11.5020 cp         1 A1D      -0.145000
      6 C7           6.9100   -18.1550    -9.5390 cp         1 A1D       0.058000
      7 C8           6.6850   -18.4170    -8.1810 ca         1 A1D      -0.227000
      8 C10          4.8580   -19.3440   -10.0200 ca         1 A1D       0.629900
      9 C13          3.5750   -18.3020   -12.8240 c3         1 A1D      -0.144400
     10 C15          1.4430   -19.9330   -11.2310 c3         1 A1D       0.146800
     11 C17         10.7310   -17.4330   -12.6710 cp         1 A1D      -0.005000
     12 C20         12.2640   -18.2790   -14.8230 ca         1 A1D      -0.138000
     13 C21         11.1690   -17.4540   -15.0380 ca         1 A1D       0.133100
     14 C22         10.3890   -17.0130   -13.9610 ca         1 A1D      -0.145300
     15 C1          10.3220   -15.8380   -10.7830 ca         1 A1D       0.396000
     16 C2           9.5530   -15.4560    -9.6590 ca         1 A1D      -0.253600
     17 C3           8.4710   -16.2420    -9.2690 ca         1 A1D      -0.018000
     18 C9           5.5560   -19.1320    -7.8460 ca         1 A1D       0.387900
     19 C11          5.9890   -18.6220   -10.4610 ca         1 A1D      -0.236000
     20 N2           3.9150   -19.8130   -10.8860 nh         1 A1D      -0.796300
     21 C12          4.0780   -19.6520   -12.3160 c3         1 A1D       0.228800
     22 C14          2.0520   -18.1810   -12.8260 c3         1 A1D       0.168800
     23 C16          2.6570   -20.3380   -10.3890 c3         1 A1D       0.192800
     24 C18         11.8380   -18.2630   -12.4430 ca         1 A1D      -0.102300
     25 C19         12.5890   -18.6750   -13.5370 ca         1 A1D      -0.081000
     26 O1          10.9060   -17.1040   -16.3170 oh         1 A1D      -0.539100
     27 C23          9.2190   -16.1070   -14.2280 c3         1 A1D      -0.053800
     28 N4          11.3770   -15.1050   -11.2250 nv         1 A1D      -1.089000
     29 C25          9.9090   -14.2410    -8.8740 c          1 A1D       0.633700
     30 N5           8.8970   -13.6230    -8.2420 nt         1 A1D      -0.599000
     31 O2          11.0630   -13.8270    -8.7980 o          1 A1D      -0.638100
     32 H1           1.6320   -17.9380   -10.8400 hn         1 A1D       0.422000
     33 H3           8.5540   -18.6010   -11.6670 ha         1 A1D       0.121000
     34 H4           7.3790   -18.0950    -7.4170 ha         1 A1D       0.124000
     35 H5           3.9360   -18.1440   -13.8450 hc         1 A1D       0.050700
     36 H6           4.0140   -17.5040   -12.2160 hc         1 A1D       0.050700
     37 H7           0.5620   -20.2180   -10.6460 h1         1 A1D       0.052200
     38 H8           1.3900   -20.5280   -12.1460 h1         1 A1D       0.052200
     39 H9          12.8590   -18.6100   -15.6660 ha         1 A1D       0.130000
     40 H10         12.4520   -17.8580   -10.4080 hc         1 A1D       0.043700
     41 H11         11.3980   -19.2490   -10.5700 hc         1 A1D       0.043700
     42 H12         13.0800   -19.3570   -11.0770 hc         1 A1D       0.043700
     43 H13          7.9110   -15.9640    -8.3840 ha         1 A1D       0.114000
     44 H14          5.3530   -19.3620    -6.8050 h4         1 A1D       0.013100
     45 H15          6.1270   -18.3800   -11.5050 ha         1 A1D       0.121000
     46 H16          3.5520   -20.4670   -12.8200 h1         1 A1D       0.051700
     47 H17          5.1270   -19.7910   -12.5790 h1         1 A1D       0.051700
     48 H18          1.7810   -17.1550   -13.0880 h1         1 A1D       0.049200
     49 H19          1.6510   -18.8120   -13.6260 h1         1 A1D       0.049200
     50 H20          2.5180   -19.9700    -9.3750 h1         1 A1D       0.060700
     51 H21          2.6820   -21.4330   -10.3200 h1         1 A1D       0.060700
     52 H22         13.4450   -19.3210   -13.3840 ha         1 A1D       0.117000
     53 H23         10.1220   -16.5480   -16.3750 ho         1 A1D       0.467000
     54 H24          8.4560   -16.6000   -14.8370 hc         1 A1D       0.045367
     55 H25          8.7330   -15.7930   -13.3080 hc         1 A1D       0.045367
     56 H26          9.5210   -15.1990   -14.7550 hc         1 A1D       0.045367
     57 H27         11.8230   -14.4910   -10.5630 hn         1 A1D       0.493500
     58 H28         11.9810   -15.5210   -11.9150 hn         1 A1D       0.493500
     59 H29          9.0860   -12.7890    -7.7100 hn         1 A1D       0.314500
     60 H30          7.9320   -13.8320    -8.4310 hn         1 A1D       0.314500
     61 C24         12.2090   -18.7030   -11.0550 c3         1 A1D      -0.042800
@<TRIPOS>BOND
     1     1     8 ar  
     2     1    18 ar  
     3     2    10 1   
     4     2    22 1   
     5     2    32 1   
     6     3     4 ar  
     7     3     6 1   
     8     3    17 ar  
     9     4     5 ar  
    10     4    33 1   
    11     5    11 1   
    12     5    15 ar  
    13     6     7 ar  
    14     6    19 ar  
    15     7    18 ar  
    16     7    34 1   
    17     8    19 ar  
    18     8    20 1   
    19     9    21 1   
    20     9    22 1   
    21     9    35 1   
    22     9    36 1   
    23    10    23 1   
    24    10    37 1   
    25    10    38 1   
    26    11    14 ar  
    27    11    24 ar  
    28    12    13 ar  
    29    12    25 ar  
    30    12    39 1   
    31    13    14 ar  
    32    13    26 1   
    33    14    27 1   
    34    15    16 ar  
    35    15    28 1   
    36    16    17 ar  
    37    16    29 1   
    38    17    43 1   
    39    18    44 1   
    40    19    45 1   
    41    20    21 1   
    42    20    23 1   
    43    21    46 1   
    44    21    47 1   
    45    22    48 1   
    46    22    49 1   
    47    23    50 1   
    48    23    51 1   
    49    24    25 ar  
    50    24    61 1   
    51    25    52 1   
    52    26    53 1   
    53    27    54 1   
    54    27    55 1   
    55    27    56 1   
    56    28    57 1   
    57    28    58 1   
    58    29    30 1   
    59    29    31 2   
    60    30    59 1   
    61    30    60 1   
    62    40    61 1   
    63    41    61 1   
    64    42    61 1   
@<TRIPOS>SUBSTRUCTURE
     1 A1D         1 TEMP              0 ****  ****    0 ROOT
