@<TRIPOS>MOLECULE
A1D
   60    62     1     0     0
SMALL
abcg2


@<TRIPOS>ATOM
      1 N1           2.9570     2.0580     0.7470 ns         1 A1D      -0.452900
      2 N3           1.7220    -1.7140    -2.1500 nv         1 A1D      -1.042200
      3 C4          -1.1900     0.6240     1.7070 cc         1 A1D      -0.247300
      4 C5          -1.0020     1.0990     2.9710 cd         1 A1D      -0.130000
      5 C6          -2.4280    -0.0060     1.1360 c3         1 A1D       0.111200
      6 C7          -2.5070     0.2230    -0.3610 ca         1 A1D      -0.074300
      7 C8          -1.8990    -0.6470    -1.2620 ca         1 A1D      -0.089500
      8 C10         -2.5680     0.7400    -3.0910 ca         1 A1D       0.119000
      9 C13         -2.5660    -1.4780     1.4810 ca         1 A1D      -0.074300
     10 C15         -3.9870    -3.4380     1.5430 ca         1 A1D      -0.107000
     11 C17         -1.6810    -3.6020     2.2230 ca         1 A1D      -0.107000
     12 C20          4.3300     2.2340     0.3360 c3         1 A1D      -0.039300
     13 C21          4.5390     1.5140    -1.0000 c3         1 A1D      -0.076400
     14 C22          4.2410     0.0220    -0.9440 c3         1 A1D      -0.096400
     15 C24          2.8600    -2.4820    -2.2090 c2         1 A1D       0.778100
     16 CL1         -2.6100     1.0600    -4.7940 cl         1 A1D      -0.215000
     17 O1           3.3110     1.6660     2.9530 o          1 A1D      -0.615100
     18 S1           0.2540     0.7480     0.7900 ss         1 A1D       0.237000
     19 C2           0.3200     1.5580     3.2290 cd         1 A1D      -0.060300
     20 N2           4.0670    -2.0610    -2.2890 n2         1 A1D      -0.730900
     21 C3           1.1160     1.4320     2.1200 cc         1 A1D      -0.241600
     22 N4           2.6300    -3.8350    -2.0650 nv         1 A1D      -1.042200
     23 C9          -1.9220    -0.3930    -2.6250 ca         1 A1D      -0.107000
     24 C11         -3.1870     1.6190    -2.2160 ca         1 A1D      -0.107000
     25 C12         -3.1490     1.3540    -0.8560 ca         1 A1D      -0.089500
     26 C14         -3.8010    -2.0910     1.2810 ca         1 A1D      -0.089500
     27 C16         -2.9170    -4.1860     2.0110 ca         1 A1D       0.119000
     28 C18         -1.5140    -2.2480     1.9580 ca         1 A1D      -0.089500
     29 C19          2.5580     1.7440     1.9890 c          1 A1D       0.630700
     30 C23          4.3150    -0.6410    -2.3200 c3         1 A1D       0.135800
     31 C25          4.7470     3.7270     0.2370 c          1 A1D       0.718000
     32 H1           2.2580     2.3160     0.0680 hn         1 A1D       0.304500
     33 H2           0.8520    -2.1570    -2.4000 hn         1 A1D       0.452000
     34 H3           1.7890    -0.7730    -2.5010 hn         1 A1D       0.452000
     35 H4          -1.7910     1.1170     3.7120 ha         1 A1D       0.122000
     36 H5          -3.2760     0.5130     1.5940 hc         1 A1D       0.067700
     37 H6          -1.4010    -1.5420    -0.9100 ha         1 A1D       0.126500
     38 H7          -4.9540    -3.8970     1.3850 ha         1 A1D       0.126000
     39 H8          -0.8500    -4.1890     2.5920 ha         1 A1D       0.126000
     40 H9           4.9610     1.7550     1.0890 h1         1 A1D       0.069700
     41 H10          3.9050     1.9870    -1.7600 hc         1 A1D       0.044200
     42 H11          5.5700     1.6720    -1.3220 hc         1 A1D       0.044200
     43 H12          4.9490    -0.4710    -0.2700 hc         1 A1D       0.044700
     44 H13          3.2460    -0.1460    -0.5230 hc         1 A1D       0.044700
     45 H14          1.2270     1.3420     5.1610 hc         1 A1D       0.046700
     46 H15          1.4310     2.9380     4.4610 hc         1 A1D       0.046700
     47 H16         -0.1340     2.4530     5.1130 hc         1 A1D       0.046700
     48 H19          1.7760    -4.1950    -2.4610 hn         1 A1D       0.452000
     49 H20          3.4280    -4.4000    -2.3040 hn         1 A1D       0.452000
     50 H21         -1.4420    -1.0760    -3.3140 ha         1 A1D       0.126000
     51 H22         -3.6950     2.5000    -2.5860 ha         1 A1D       0.126000
     52 H23         -3.6290     2.0430    -0.1720 ha         1 A1D       0.126500
     53 H24         -4.6370    -1.5090     0.9110 ha         1 A1D       0.126500
     54 H25         -0.5420    -1.8060     2.1340 ha         1 A1D       0.126500
     55 H26          3.6430    -0.0990    -3.0060 h1         1 A1D       0.027200
     56 H27          5.3180    -0.4820    -2.7280 h1         1 A1D       0.027200
     57 O2           3.8530     4.5820     0.3630 o          1 A1D      -0.720500
     58 O3           5.9590     3.9170     0.0180 o          1 A1D      -0.720500
     59 CL2         -3.1350    -5.8740     2.3390 cl         1 A1D      -0.215000
     60 C1           0.7360     2.1070     4.5580 c3         1 A1D      -0.022800
@<TRIPOS>BOND
     1     1    12 1   
     2     1    29 1   
     3     1    32 1   
     4     2    15 1   
     5     2    33 1   
     6     2    34 1   
     7     3     4 2   
     8     3     5 1   
     9     3    18 1   
    10     4    19 1   
    11     4    35 1   
    12     5     6 1   
    13     5     9 1   
    14     5    36 1   
    15     6     7 ar  
    16     6    25 ar  
    17     7    23 ar  
    18     7    37 1   
    19     8    16 1   
    20     8    23 ar  
    21     8    24 ar  
    22     9    26 ar  
    23     9    28 ar  
    24    10    26 ar  
    25    10    27 ar  
    26    10    38 1   
    27    11    27 ar  
    28    11    28 ar  
    29    11    39 1   
    30    12    13 1   
    31    12    31 1   
    32    12    40 1   
    33    13    14 1   
    34    13    41 1   
    35    13    42 1   
    36    14    30 1   
    37    14    43 1   
    38    14    44 1   
    39    15    20 2   
    40    15    22 1   
    41    17    29 2   
    42    18    21 1   
    43    19    21 2   
    44    19    60 1   
    45    20    30 1   
    46    21    29 1   
    47    22    48 1   
    48    22    49 1   
    49    23    50 1   
    50    24    25 ar  
    51    24    51 1   
    52    25    52 1   
    53    26    53 1   
    54    27    59 1   
    55    28    54 1   
    56    30    55 1   
    57    30    56 1   
    58    31    57 1   
    59    31    58 1   
    60    45    60 1   
    61    46    60 1   
    62    47    60 1   
@<TRIPOS>SUBSTRUCTURE
     1 A1D         1 TEMP              0 ****  ****    0 ROOT
