@<TRIPOS>MOLECULE
A1D
   71    76     1     0     0
SMALL
abcg2


@<TRIPOS>ATOM
      1 C1          10.6920   -58.2670   -17.9580 c          1 A1D       0.592100
      2 O1          11.1470   -58.0200   -19.0630 o          1 A1D      -0.598100
      3 N1          11.3950   -58.8290   -16.9640 ns         1 A1D      -0.482900
      4 C2          12.7550   -59.2720   -17.0970 cy         1 A1D       0.095700
      5 C3          13.0470   -60.7520   -17.4200 cy         1 A1D      -0.124400
      6 C4          14.2420   -60.6510   -16.4680 cy         1 A1D       0.153300
      7 O2          14.4960   -61.7980   -15.7120 oh         1 A1D      -0.644000
      8 C5          13.5650   -59.4350   -15.8040 cy         1 A1D      -0.124400
      9 C6           9.2250   -57.9870   -17.6180 c3         1 A1D       0.040700
     10 C7           8.3720   -59.2100   -17.9960 c3         1 A1D      -0.101700
     11 C8           6.9260   -58.9670   -17.7440 cc         1 A1D       0.199300
     12 N2           6.3730   -58.9970   -16.5090 nc         1 A1D      -0.349000
     13 N3           5.1330   -58.6710   -16.5850 nd         1 A1D      -0.186800
     14 C9           5.9490   -58.5960   -18.6280 cd         1 A1D      -0.193000
     15 N4           4.8550   -58.4210   -17.8590 na         1 A1D       0.223000
     16 C10          3.5720   -57.9880   -18.2540 ca         1 A1D       0.008800
     17 C11          3.1000   -58.3030   -19.5200 ca         1 A1D      -0.103500
     18 C12          1.8650   -57.8290   -19.9250 ca         1 A1D      -0.088000
     19 C13          2.8060   -57.2200   -17.3890 ca         1 A1D      -0.103500
     20 C14          1.5670   -56.7620   -17.8020 ca         1 A1D      -0.088000
     21 C15          1.0790   -57.0490   -19.0770 cp         1 A1D      -0.035000
     22 C16         -0.2340   -56.5410   -19.5160 cp         1 A1D      -0.018000
     23 C17         -1.0670   -57.3190   -20.3230 ca         1 A1D      -0.103000
     24 C18         -2.2990   -56.8490   -20.7360 ca         1 A1D      -0.071000
     25 C19         -0.6700   -55.2700   -19.1330 ca         1 A1D      -0.103000
     26 C20         -1.9000   -54.7880   -19.5390 ca         1 A1D      -0.071000
     27 C21         -2.7190   -55.5790   -20.3440 ca         1 A1D      -0.010000
     28 C22         -3.9900   -55.0890   -20.7680 cg         1 A1D       0.319000
     29 N5          -5.0160   -54.6930   -21.1130 n1         1 A1D      -0.443000
     30 N6           8.7440   -56.8340   -18.3230 ns         1 A1D      -0.483900
     31 C23          9.1600   -55.5890   -18.0310 c          1 A1D       0.643100
     32 C24          8.5440   -54.4920   -18.8540 cx         1 A1D      -0.186700
     33 C25          8.5920   -53.1150   -18.2460 cx         1 A1D      -0.089900
     34 C26          9.5160   -53.4510   -19.3590 cx         1 A1D      -0.089900
     35 C27          7.3640   -54.8540   -19.6970 ca         1 A1D      -0.058300
     36 C28          6.0870   -54.8760   -19.1380 ca         1 A1D      -0.100500
     37 C29          4.9890   -55.2600   -19.8930 ca         1 A1D      -0.117000
     38 C30          5.1560   -55.6380   -21.2200 ca         1 A1D      -0.116000
     39 C31          6.4230   -55.6210   -21.7870 ca         1 A1D      -0.117000
     40 C32          7.5200   -55.2310   -21.0280 ca         1 A1D      -0.100500
     41 O3           9.9800   -55.3690   -17.1520 o          1 A1D      -0.606100
     42 H1          10.9250   -59.0360   -16.0960 hn         1 A1D       0.316500
     43 H2          13.2680   -58.6150   -17.7990 h1         1 A1D       0.087700
     44 H4          12.2720   -61.3930   -16.9940 hc         1 A1D       0.064700
     45 H3          13.2230   -61.0330   -18.4580 hc         1 A1D       0.064700
     46 H5          15.1340   -60.3240   -17.0170 h1         1 A1D       0.039700
     47 H6          15.2870   -61.6480   -15.1850 ho         1 A1D       0.447000
     48 H7          14.1820   -58.6010   -15.4710 hc         1 A1D       0.064700
     49 H8          12.9250   -59.7640   -14.9800 hc         1 A1D       0.064700
     50 H9           9.1240   -57.8160   -16.5420 h1         1 A1D       0.086700
     51 H10          8.5250   -59.4480   -19.0510 hc         1 A1D       0.069200
     52 H11          8.7170   -60.0690   -17.4190 hc         1 A1D       0.069200
     53 H12          5.9630   -58.4230   -19.6910 h4         1 A1D       0.174000
     54 H13          3.6860   -58.9100   -20.1970 ha         1 A1D       0.137500
     55 H14          1.5230   -58.0620   -20.9250 ha         1 A1D       0.125500
     56 H15          3.1720   -56.9710   -16.4020 ha         1 A1D       0.137500
     57 H16          0.9740   -56.1770   -17.1110 ha         1 A1D       0.125500
     58 H17         -0.7620   -58.3150   -20.6170 ha         1 A1D       0.122000
     59 H18         -2.9360   -57.4670   -21.3550 ha         1 A1D       0.129000
     60 H19         -0.0350   -54.6380   -18.5260 ha         1 A1D       0.122000
     61 H20         -2.2210   -53.8000   -19.2390 ha         1 A1D       0.129000
     62 H21          8.1630   -56.9740   -19.1340 hn         1 A1D       0.327500
     63 H23          7.7520   -52.4670   -18.4570 hc         1 A1D       0.084450
     64 H22          8.9990   -53.0190   -17.2480 hc         1 A1D       0.084450
     65 H24         10.5650   -53.5940   -19.1330 hc         1 A1D       0.084450
     66 H25          9.3170   -53.0360   -20.3380 hc         1 A1D       0.084450
     67 H26          5.9540   -54.5880   -18.1010 ha         1 A1D       0.123000
     68 H27          4.0020   -55.2670   -19.4480 ha         1 A1D       0.116500
     69 H28          4.2990   -55.9400   -21.8090 ha         1 A1D       0.112000
     70 H29          6.5590   -55.9110   -22.8210 ha         1 A1D       0.116500
     71 H30          8.5080   -55.2200   -21.4730 ha         1 A1D       0.123000
@<TRIPOS>BOND
     1     1     2 2   
     2     1     3 1   
     3     1     9 1   
     4     3     4 1   
     5     3    42 1   
     6     4     5 1   
     7     4     8 1   
     8     4    43 1   
     9     5     6 1   
    10     5    44 1   
    11     5    45 1   
    12     6     7 1   
    13     6     8 1   
    14     6    46 1   
    15     7    47 1   
    16     8    48 1   
    17     8    49 1   
    18     9    10 1   
    19     9    30 1   
    20     9    50 1   
    21    10    11 1   
    22    10    51 1   
    23    10    52 1   
    24    11    12 1   
    25    11    14 2   
    26    12    13 2   
    27    13    15 1   
    28    14    15 1   
    29    14    53 1   
    30    15    16 1   
    31    16    17 ar  
    32    16    19 ar  
    33    17    18 ar  
    34    17    54 1   
    35    18    21 ar  
    36    18    55 1   
    37    19    20 ar  
    38    19    56 1   
    39    20    21 ar  
    40    20    57 1   
    41    21    22 1   
    42    22    23 ar  
    43    22    25 ar  
    44    23    24 ar  
    45    23    58 1   
    46    24    27 ar  
    47    24    59 1   
    48    25    26 ar  
    49    25    60 1   
    50    26    27 ar  
    51    26    61 1   
    52    27    28 1   
    53    28    29 3   
    54    30    31 1   
    55    30    62 1   
    56    31    32 1   
    57    31    41 2   
    58    32    33 1   
    59    32    34 1   
    60    32    35 1   
    61    33    34 1   
    62    33    63 1   
    63    33    64 1   
    64    34    65 1   
    65    34    66 1   
    66    35    36 ar  
    67    35    40 ar  
    68    36    37 ar  
    69    36    67 1   
    70    37    38 ar  
    71    37    68 1   
    72    38    39 ar  
    73    38    69 1   
    74    39    40 ar  
    75    39    70 1   
    76    40    71 1   
@<TRIPOS>SUBSTRUCTURE
     1 A1D         1 TEMP              0 ****  ****    0 ROOT
