@<TRIPOS>MOLECULE
A1D
   62    63     1     0     0
SMALL
abcg2


@<TRIPOS>ATOM
      1 C10        -27.2410    16.7460   -11.6130 c3         1 A1D      -0.078400
      2 C13        -30.4090    11.5080   -12.4050 c2         1 A1D      -0.158200
      3 C15        -30.2430    10.4510   -13.4490 c3         1 A1D      -0.043200
      4 C14        -32.7790    10.9500   -11.7870 c3         1 A1D      -0.044900
      5 C12        -31.5080    11.7390   -11.6730 ce         1 A1D      -0.189400
      6 C16        -31.4930    12.7710   -10.6090 c          1 A1D       0.581300
      7 C11        -25.8180    16.2770   -11.8840 c3         1 A1D      -0.089100
      8 C01        -29.7270    16.0390   -11.7320 c6         1 A1D      -0.198700
      9 C02        -30.2480    17.1020   -12.6760 c          1 A1D       0.587100
     10 C03        -31.3630    16.6540   -13.5930 c6         1 A1D      -0.316400
     11 C05        -28.2580    15.6960   -12.0410 c3         1 A1D      -0.066400
     12 C06        -30.5960    14.7840   -11.8260 c6         1 A1D       0.193300
     13 C08        -32.4360    15.9570   -12.8030 c          1 A1D       0.678100
     14 C18        -30.4410    13.8660   -10.6220 c3         1 A1D      -0.176400
     15 C20        -29.1370    10.7670   -14.4380 c5         1 A1D       0.167300
     16 C21        -28.8410     9.6890   -15.4820 c5         1 A1D      -0.090700
     17 C22        -28.0870    10.5300   -16.5110 c5         1 A1D      -0.107400
     18 C23        -28.6740    11.9580   -16.3770 c5         1 A1D       0.186000
     19 C24        -30.0780     9.0060   -16.0530 c3         1 A1D      -0.084100
     20 C25        -29.5880    12.3090   -17.5430 c3         1 A1D      -0.087100
     21 C26        -27.5240    12.9660   -16.2290 c3         1 A1D      -0.085400
     22 C27        -27.8250    14.4380   -16.4290 c3         1 A1D       0.170600
     23 O04        -29.8210    18.2290   -12.7020 o          1 A1D      -0.498100
     24 O07        -31.9960    15.1180   -11.8670 os         1 A1D      -0.441100
     25 O09        -33.6140    16.1300   -12.9440 o          1 A1D      -0.479000
     26 O17        -32.3410    12.7610    -9.7400 o          1 A1D      -0.504100
     27 O19        -29.4740    11.9150   -15.1890 os         1 A1D      -0.442000
     28 O28        -28.7720    14.9070   -15.4920 oh         1 A1D      -0.659000
     29 H102       -27.4180    17.6880   -12.1330 hc         1 A1D       0.050700
     30 H101       -27.3650    16.9540   -10.5460 hc         1 A1D       0.050700
     31 H131       -29.5180    12.0970   -12.2080 ha         1 A1D       0.168000
     32 H152       -29.9820     9.5080   -12.9560 hc         1 A1D       0.063700
     33 H151       -31.1820    10.2690   -13.9750 hc         1 A1D       0.063700
     34 H142       -33.6480    11.6040   -11.8440 hc         1 A1D       0.048367
     35 H141       -32.7850    10.3100   -12.6660 hc         1 A1D       0.048367
     36 H143       -32.9200    10.3080   -10.9160 hc         1 A1D       0.048367
     37 H112       -25.0890    17.0300   -11.5840 hc         1 A1D       0.032367
     38 H111       -25.5900    15.3600   -11.3390 hc         1 A1D       0.032367
     39 H113       -25.6660    16.0750   -12.9460 hc         1 A1D       0.032367
     40 H011       -29.7930    16.4450   -10.7140 hc         1 A1D       0.092700
     41 H031       -30.9470    15.9350   -14.3120 hc         1 A1D       0.104700
     42 H032       -31.7810    17.4870   -14.1540 hc         1 A1D       0.104700
     43 H052       -28.0130    14.7630   -11.5260 hc         1 A1D       0.049700
     44 H051       -28.1540    15.4800   -13.1080 hc         1 A1D       0.049700
     45 H061       -30.3510    14.2410   -12.7450 h1         1 A1D       0.076700
     46 H181       -29.4360    13.4400   -10.6180 hc         1 A1D       0.075200
     47 H182       -30.5480    14.4450    -9.7030 hc         1 A1D       0.075200
     48 H201       -28.2120    10.9470   -13.8650 h1         1 A1D       0.029700
     49 H211       -28.1860     8.9260   -15.0520 hc         1 A1D       0.057700
     50 H222       -27.0200    10.5330   -16.2770 hc         1 A1D       0.052200
     51 H221       -28.1870    10.1460   -17.5280 hc         1 A1D       0.052200
     52 H243       -29.7990     8.3610   -16.8880 hc         1 A1D       0.038700
     53 H241       -30.5730     8.3770   -15.3120 hc         1 A1D       0.038700
     54 H242       -30.8130     9.7210   -16.4250 hc         1 A1D       0.038700
     55 H251       -30.1330    13.2370   -17.3640 hc         1 A1D       0.043367
     56 H253       -29.0100    12.4300   -18.4600 hc         1 A1D       0.043367
     57 H252       -30.3200    11.5190   -17.7150 hc         1 A1D       0.043367
     58 H261       -27.0440    12.8100   -15.2570 hc         1 A1D       0.049200
     59 H262       -26.7650    12.7180   -16.9780 hc         1 A1D       0.049200
     60 H272       -26.8790    14.9860   -16.3340 h1         1 A1D       0.017200
     61 H271       -28.1760    14.6050   -17.4550 h1         1 A1D       0.017200
     62 H1         -28.8550    15.8570   -15.6160 ho         1 A1D       0.436000
@<TRIPOS>BOND
     1     1     7 1   
     2     1    11 1   
     3     1    29 1   
     4     1    30 1   
     5     2     3 1   
     6     2     5 2   
     7     2    31 1   
     8     3    15 1   
     9     3    32 1   
    10     3    33 1   
    11     4     5 1   
    12     4    34 1   
    13     4    35 1   
    14     4    36 1   
    15     5     6 1   
    16     6    14 1   
    17     6    26 2   
    18     7    37 1   
    19     7    38 1   
    20     7    39 1   
    21     8     9 1   
    22     8    11 1   
    23     8    12 1   
    24     8    40 1   
    25     9    10 1   
    26     9    23 2   
    27    10    13 1   
    28    10    41 1   
    29    10    42 1   
    30    11    43 1   
    31    11    44 1   
    32    12    14 1   
    33    12    24 1   
    34    12    45 1   
    35    13    24 1   
    36    13    25 2   
    37    14    46 1   
    38    14    47 1   
    39    15    16 1   
    40    15    27 1   
    41    15    48 1   
    42    16    17 1   
    43    16    19 1   
    44    16    49 1   
    45    17    18 1   
    46    17    50 1   
    47    17    51 1   
    48    18    20 1   
    49    18    21 1   
    50    18    27 1   
    51    19    52 1   
    52    19    53 1   
    53    19    54 1   
    54    20    55 1   
    55    20    56 1   
    56    20    57 1   
    57    21    22 1   
    58    21    58 1   
    59    21    59 1   
    60    22    28 1   
    61    22    60 1   
    62    22    61 1   
    63    28    62 1   
@<TRIPOS>SUBSTRUCTURE
     1 A1D         1 TEMP              0 ****  ****    0 ROOT
