@<TRIPOS>MOLECULE
A1D
   66    68     1     0     0
SMALL
abcg2


@<TRIPOS>ATOM
      1 N1           8.8120    -7.0720    22.1510 ns         1 A1D      -0.462900
      2 C4          11.0910    -7.5100    22.9280 c3         1 A1D      -0.037100
      3 C5          11.1550    -6.2630    23.7710 ca         1 A1D      -0.095300
      4 C8          10.1320   -11.7770    22.1860 c3         1 A1D       0.040700
      5 C10         10.9640   -12.6680    23.1120 c3         1 A1D      -0.055400
      6 N12          8.5800   -12.8810    20.6830 ns         1 A1D      -0.494900
      7 C15          7.5500   -14.7710    19.5730 c2         1 A1D       0.408200
      8 C17          6.3940   -11.0850    19.7630 c5         1 A1D      -0.155700
      9 C21          5.8710   -10.0920    18.7280 c          1 A1D       0.560000
     10 C26         11.0730    -6.3480    25.1620 ca         1 A1D      -0.104000
     11 C28         11.1970    -3.9470    25.3460 ca         1 A1D      -0.101000
     12 C11         12.3810   -12.1750    23.2720 cx         1 A1D      -0.133700
     13 C14          7.3160   -13.4190    20.1950 c3         1 A1D       0.048400
     14 C16          6.6730   -12.4630    19.1780 c3         1 A1D      -0.070400
     15 C18          5.3390   -11.0340    20.8780 c5         1 A1D      -0.092400
     16 C19          4.7010    -9.6450    20.7300 c5         1 A1D       0.099000
     17 C2           9.6550    -8.0550    22.8020 c3         1 A1D       0.037700
     18 C23          7.5020    -6.9940    22.3810 c          1 A1D       0.557100
     19 C27         11.0950    -5.2000    25.9450 ca         1 A1D      -0.103500
     20 C29         11.2810    -3.8520    23.9610 ca         1 A1D      -0.103500
     21 C3           9.6640    -9.3760    22.0210 c          1 A1D       0.581100
     22 C30         11.2610    -5.0040    23.1800 ca         1 A1D      -0.104000
     23 C34         13.3930   -12.4800    22.2020 cx         1 A1D      -0.127400
     24 C35         13.4840   -13.1580    23.5460 cx         1 A1D      -0.127400
     25 C9           8.7600   -12.4120    21.9320 c          1 A1D       0.583100
     26 F31          7.5720    -5.1330    20.8270 f          1 A1D      -0.101667
     27 F32          5.7470    -6.3020    20.9320 f          1 A1D      -0.101667
     28 F33          6.2770    -4.9740    22.5620 f          1 A1D      -0.101667
     29 N20          4.9160    -9.3490    19.3170 ns         1 A1D      -0.512900
     30 N41          6.8120   -15.7630    19.8480 n2         1 A1D      -0.729100
     31 N6           9.9680   -10.4540    22.7630 ns         1 A1D      -0.486900
     32 O22          6.2670    -9.9720    17.5700 o          1 A1D      -0.570000
     33 O25          6.8460    -7.7150    23.1140 o          1 A1D      -0.547100
     34 O7           9.4650    -9.4180    20.8110 o          1 A1D      -0.598100
     35 H44          9.2300    -6.4560    21.4700 hn         1 A1D       0.346500
     36 H46         11.7040    -8.2980    23.3680 hc         1 A1D       0.065200
     37 H47         11.4770    -7.3130    21.9260 hc         1 A1D       0.065200
     38 H49         10.6580   -11.6570    21.2380 h1         1 A1D       0.075700
     39 H50         10.4640   -12.7320    24.0830 hc         1 A1D       0.064700
     40 H51         10.9740   -13.6760    22.6900 hc         1 A1D       0.064700
     41 H53          9.2960   -12.6830    19.9990 hn         1 A1D       0.316500
     42 H1           8.3820   -14.8220    18.8630 h4         1 A1D      -0.041200
     43 H57          7.3350   -10.6520    20.1220 hc         1 A1D       0.089700
     44 H63         10.9930    -7.3210    25.6340 ha         1 A1D       0.110000
     45 H65         11.2140    -3.0520    25.9550 ha         1 A1D       0.118000
     46 H52         12.4780   -11.2090    23.7530 hc         1 A1D       0.074700
     47 H54          6.6660   -13.5410    21.0590 h1         1 A1D       0.108700
     48 H55          7.3320   -12.3640    18.3120 hc         1 A1D       0.062700
     49 H56          5.7400   -12.9140    18.8290 hc         1 A1D       0.062700
     50 H59          4.5870   -11.8070    20.7040 hc         1 A1D       0.066200
     51 H58          5.7640   -11.1890    21.8670 hc         1 A1D       0.066200
     52 H61          3.6380    -9.6420    20.9690 h1         1 A1D       0.051700
     53 H60          5.1990    -8.9040    21.3590 h1         1 A1D       0.051700
     54 H45          9.2450    -8.2330    23.7970 h1         1 A1D       0.090700
     55 H64         11.0340    -5.2820    27.0230 ha         1 A1D       0.117500
     56 H66         11.3640    -2.8820    23.4860 ha         1 A1D       0.117500
     57 H67         11.3290    -4.9260    22.1020 ha         1 A1D       0.110000
     58 H68         13.0620   -13.0760    21.3610 hc         1 A1D       0.073700
     59 H69         14.1280   -11.7240    21.9590 hc         1 A1D       0.073700
     60 H71         14.2800   -12.8600    24.2160 hc         1 A1D       0.073700
     61 H70         13.2170   -14.2060    23.5990 hc         1 A1D       0.073700
     62 H62          4.5200    -8.5420    18.8580 hn         1 A1D       0.327500
     63 H4           7.1000   -16.5870    19.3190 hn         1 A1D       0.380400
     64 H48         10.0300   -10.3600    23.7660 hn         1 A1D       0.328500
     65 O13          7.9200   -12.4890    22.8250 o          1 A1D      -0.595100
     66 C24          6.7740    -5.8320    21.6550 c3         1 A1D       0.212000
@<TRIPOS>BOND
     1     1    17 1   
     2     1    18 1   
     3     1    35 1   
     4     2     3 1   
     5     2    17 1   
     6     2    36 1   
     7     2    37 1   
     8     3    10 ar  
     9     3    22 ar  
    10     4     5 1   
    11     4    25 1   
    12     4    31 1   
    13     4    38 1   
    14     5    12 1   
    15     5    39 1   
    16     5    40 1   
    17     6    13 1   
    18     6    25 1   
    19     6    41 1   
    20     7    13 1   
    21     7    30 2   
    22     7    42 1   
    23     8     9 1   
    24     8    14 1   
    25     8    15 1   
    26     8    43 1   
    27     9    29 1   
    28     9    32 2   
    29    10    19 ar  
    30    10    44 1   
    31    11    19 ar  
    32    11    20 ar  
    33    11    45 1   
    34    12    23 1   
    35    12    24 1   
    36    12    46 1   
    37    13    14 1   
    38    13    47 1   
    39    14    48 1   
    40    14    49 1   
    41    15    16 1   
    42    15    50 1   
    43    15    51 1   
    44    16    29 1   
    45    16    52 1   
    46    16    53 1   
    47    17    21 1   
    48    17    54 1   
    49    18    33 2   
    50    18    66 1   
    51    19    55 1   
    52    20    22 ar  
    53    20    56 1   
    54    21    31 1   
    55    21    34 2   
    56    22    57 1   
    57    23    24 1   
    58    23    58 1   
    59    23    59 1   
    60    24    60 1   
    61    24    61 1   
    62    25    65 2   
    63    26    66 1   
    64    27    66 1   
    65    28    66 1   
    66    29    62 1   
    67    30    63 1   
    68    31    64 1   
@<TRIPOS>SUBSTRUCTURE
     1 A1D         1 TEMP              0 ****  ****    0 ROOT
