@<TRIPOS>MOLECULE
A1D
   64    68     1     0     0
SMALL
abcg2


@<TRIPOS>ATOM
      1 C14          8.4660   -15.7520   -16.5640 ca         1 A1D      -0.138000
      2 C6           5.0930   -16.3350   -14.6050 cc         1 A1D       0.342800
      3 C7           5.2610   -15.7030   -15.9520 c3         1 A1D       0.198000
      4 C9           6.1040   -16.5520   -16.9160 cy         1 A1D      -0.103700
      5 C10          5.3850   -17.8200   -17.4310 cy         1 A1D       0.157100
      6 C12          6.0130   -16.0770   -18.3840 cy         1 A1D       0.157100
      7 C13          7.4830   -16.7100   -16.3260 ca         1 A1D      -0.050300
      8 N2           5.7980   -15.9890   -13.4890 na         1 A1D      -0.368000
      9 C3           5.3590   -16.8400   -12.5250 cc         1 A1D       0.380400
     10 C1           6.8440   -14.9840   -13.3410 c3         1 A1D       0.061900
     11 C15          9.7040   -15.8740   -15.9460 ca         1 A1D      -0.085000
     12 C16          9.9690   -16.9270   -15.0830 ca         1 A1D      -0.165000
     13 C17          8.9830   -17.8900   -14.8280 ca         1 A1D      -0.008000
     14 C18          7.7440   -17.7740   -15.4690 ca         1 A1D      -0.129000
     15 C20         10.5960   -19.0970   -13.3490 c5         1 A1D       0.135300
     16 C21         10.4490   -20.3060   -12.4780 ca         1 A1D      -0.033300
     17 C22          9.1470   -20.7730   -12.5630 ca         1 A1D      -0.163600
     18 C23          8.7110   -21.8820   -11.8570 ca         1 A1D      -0.001000
     19 C24          9.6140   -22.5510   -11.0340 ca         1 A1D      -0.140300
     20 C25         10.9280   -22.0810   -10.9440 ca         1 A1D      -0.031000
     21 C26         11.3570   -20.9630   -11.6580 ca         1 A1D      -0.182300
     22 C27         12.7720   -20.4730   -11.5460 c3         1 A1D       0.348300
     23 C31          9.1860   -23.8020   -10.2910 c3         1 A1D       0.205100
     24 C33         10.1490   -25.3950   -11.8800 c3         1 A1D       0.162800
     25 C34          9.8870   -26.6220   -12.7480 c3         1 A1D      -0.135400
     26 C35          9.1210   -26.3610   -14.0180 c3         1 A1D       0.161300
     27 C38          8.3780   -19.9100   -13.4860 c          1 A1D       0.581600
     28 F28         13.3750   -20.3960   -12.7570 f          1 A1D      -0.110667
     29 F29         12.8360   -19.2260   -11.0160 f          1 A1D      -0.110667
     30 F30         13.5420   -21.2610   -10.7750 f          1 A1D      -0.110667
     31 F36          9.7430   -25.3930   -14.7780 f          1 A1D      -0.129500
     32 F37          7.8530   -25.8680   -13.7580 f          1 A1D      -0.129500
     33 F40          3.9840   -15.5030   -16.5010 f          1 A1D      -0.236000
     34 N19          9.2600   -18.9440   -13.9390 n          1 A1D      -0.233400
     35 N32          8.9580   -24.9700   -11.1440 n7         1 A1D      -0.861400
     36 N4           4.4410   -17.6440   -13.0010 nd         1 A1D      -0.348000
     37 N5           4.2740   -17.3240   -14.3310 nd         1 A1D      -0.332000
     38 O11          5.2540   -17.2520   -18.7590 oq         1 A1D      -0.450000
     39 H49          8.2700   -14.9150   -17.2210 ha         1 A1D       0.118000
     40 H8           5.7180   -14.7170   -15.8550 h1         1 A1D       0.058700
     41 H46          4.4160   -18.0360   -16.9830 h1         1 A1D       0.068950
     42 H45          6.0040   -18.7180   -17.4360 h1         1 A1D       0.068950
     43 H47          6.9720   -16.0370   -18.9020 h1         1 A1D       0.068950
     44 H48          5.4530   -15.1580   -18.5590 h1         1 A1D       0.068950
     45 H44          5.7340   -16.8260   -11.5150 h5         1 A1D       0.061100
     46 H43          6.9970   -14.8050   -12.2800 h1         1 A1D       0.058033
     47 H41          7.7710   -15.3360   -13.7890 h1         1 A1D       0.058033
     48 H42          6.5360   -14.0560   -13.8190 h1         1 A1D       0.058033
     49 H50         10.4740   -15.1360   -16.1290 ha         1 A1D       0.118000
     50 H51         10.9380   -16.9880   -14.6130 ha         1 A1D       0.116000
     51 H52          6.9840   -18.5110   -15.2740 ha         1 A1D       0.163000
     52 H54         11.3460   -19.2350   -14.1300 h1         1 A1D       0.081200
     53 H53         10.8650   -18.2110   -12.7700 h1         1 A1D       0.081200
     54 H55          7.6860   -22.2210   -11.9480 ha         1 A1D       0.148000
     55 H56         11.6270   -22.6030   -10.3060 ha         1 A1D       0.135000
     56 H57          8.2580   -23.5990    -9.7520 h1         1 A1D       0.066200
     57 H58          9.9470   -24.0600    -9.5520 h1         1 A1D       0.066200
     58 H61         10.9140   -25.6530   -11.1430 h1         1 A1D       0.042200
     59 H60         10.5740   -24.5950   -12.5010 h1         1 A1D       0.042200
     60 H62          9.3460   -27.3840   -12.1820 hc         1 A1D       0.073700
     61 H63         10.8410   -27.0610   -13.0510 hc         1 A1D       0.073700
     62 H64          8.9990   -27.2440   -14.6460 h2         1 A1D       0.065700
     63 H59          8.2060   -24.7690   -11.7930 hn         1 A1D       0.427000
     64 O39          7.1980   -20.0330   -13.7820 o          1 A1D      -0.497000
@<TRIPOS>BOND
     1     1     7 ar  
     2     1    11 ar  
     3     1    39 1   
     4     2     3 1   
     5     2     8 1   
     6     2    37 2   
     7     3     4 1   
     8     3    33 1   
     9     3    40 1   
    10     4     5 1   
    11     4     6 1   
    12     4     7 1   
    13     5    38 1   
    14     5    41 1   
    15     5    42 1   
    16     6    38 1   
    17     6    43 1   
    18     6    44 1   
    19     7    14 ar  
    20     8     9 1   
    21     8    10 1   
    22     9    36 2   
    23     9    45 1   
    24    10    46 1   
    25    10    47 1   
    26    10    48 1   
    27    11    12 ar  
    28    11    49 1   
    29    12    13 ar  
    30    12    50 1   
    31    13    14 ar  
    32    13    34 1   
    33    14    51 1   
    34    15    16 1   
    35    15    34 1   
    36    15    52 1   
    37    15    53 1   
    38    16    17 ar  
    39    16    21 ar  
    40    17    18 ar  
    41    17    27 1   
    42    18    19 ar  
    43    18    54 1   
    44    19    20 ar  
    45    19    23 1   
    46    20    21 ar  
    47    20    55 1   
    48    21    22 1   
    49    22    28 1   
    50    22    29 1   
    51    22    30 1   
    52    23    35 1   
    53    23    56 1   
    54    23    57 1   
    55    24    25 1   
    56    24    35 1   
    57    24    58 1   
    58    24    59 1   
    59    25    26 1   
    60    25    60 1   
    61    25    61 1   
    62    26    31 1   
    63    26    32 1   
    64    26    62 1   
    65    27    34 1   
    66    27    64 2   
    67    35    63 1   
    68    36    37 1   
@<TRIPOS>SUBSTRUCTURE
     1 A1D         1 TEMP              0 ****  ****    0 ROOT
