@<TRIPOS>MOLECULE
A1D
   51    53     1     0     0
SMALL
abcg2


@<TRIPOS>ATOM
      1 C4         -62.7680     9.0710   -23.6290 ca         1 A1D       0.336900
      2 C6         -62.7980     6.8780   -24.3250 ca         1 A1D       0.366300
      3 C7         -62.3720     6.4510   -23.0580 ca         1 A1D       0.232000
      4 C13        -65.3930     3.3370   -22.3110 ca         1 A1D       0.023800
      5 C15        -65.3330     5.6030   -22.6270 cc         1 A1D      -0.194200
      6 C22        -70.0440     1.5210   -21.2030 c3         1 A1D       0.087300
      7 C24        -63.0120     5.9000   -25.4620 c3         1 A1D      -0.111000
      8 C26        -64.2580     6.2280   -26.2860 c3         1 A1D      -0.079600
      9 C11        -63.5540     1.8850   -22.1570 ca         1 A1D       0.394900
     10 C12        -64.9240     2.0320   -22.1180 ca         1 A1D      -0.231000
     11 C14        -64.5130     4.4250   -22.5260 ca         1 A1D      -0.197800
     12 C16        -66.6290     5.1950   -22.4840 cd         1 A1D      -0.173100
     13 C18        -67.8560     3.0570   -22.0310 c3         1 A1D       0.001600
     14 C19        -68.0820     2.8530   -20.5260 c          1 A1D       0.574100
     15 C2         -62.1330     7.3890   -22.0470 ca         1 A1D      -0.045300
     16 C23        -69.4680     1.8360   -18.8030 c3         1 A1D       0.087300
     17 C25        -61.7530     5.8590   -26.3410 c3         1 A1D      -0.079600
     18 C3         -62.3370     8.7310   -22.3570 ca         1 A1D      -0.167000
     19 C9         -63.1280     4.1300   -22.5650 ca         1 A1D       0.671900
     20 N10        -62.6770     2.8870   -22.3750 nb         1 A1D      -0.787000
     21 N17        -66.6710     3.8240   -22.3080 na         1 A1D      -0.080700
     22 N21        -69.1600     2.1110   -20.2000 n          1 A1D      -0.419800
     23 N5         -62.9930     8.1740   -24.5910 nb         1 A1D      -0.673000
     24 N8         -62.1610     5.0760   -22.7920 nu         1 A1D      -0.973900
     25 O20        -67.3160     3.3480   -19.6990 o          1 A1D      -0.576100
     26 H1         -62.9380    10.1100   -23.8890 h4         1 A1D       0.019100
     27 H2         -65.0180     6.6170   -22.7910 ha         1 A1D       0.210000
     28 H3         -70.8640     1.0300   -20.6840 h1         1 A1D       0.044533
     29 H4         -70.4680     2.2800   -21.8610 h1         1 A1D       0.044533
     30 H5         -69.5250     0.7740   -21.8070 h1         1 A1D       0.044533
     31 H6         -63.1460     4.9090   -25.0310 hc         1 A1D       0.065700
     32 H7         -65.1480     6.2540   -25.6550 hc         1 A1D       0.037533
     33 H8         -64.1610     7.1950   -26.7790 hc         1 A1D       0.037533
     34 H9         -64.4040     5.4640   -27.0530 hc         1 A1D       0.037533
     35 H10        -60.6990     6.5020   -20.7170 hc         1 A1D       0.052033
     36 H11        -61.6590     7.8040   -19.9990 hc         1 A1D       0.052033
     37 H12        -62.3710     6.2020   -20.2790 hc         1 A1D       0.052033
     38 H13        -63.1130     0.9060   -22.0030 h4         1 A1D       0.013100
     39 H14        -65.5780     1.1920   -21.9330 ha         1 A1D       0.120000
     40 H15        -67.5440     5.7650   -22.4980 h4         1 A1D       0.212000
     41 H16        -68.7140     3.5740   -22.4620 h1         1 A1D       0.073700
     42 H17        -67.7860     2.0890   -22.5280 h1         1 A1D       0.073700
     43 H18        -68.7490     2.3460   -18.1710 h1         1 A1D       0.044533
     44 H19        -70.4740     2.1900   -18.5670 h1         1 A1D       0.044533
     45 H20        -69.4210     0.7620   -18.6110 h1         1 A1D       0.044533
     46 H21        -60.8760     5.5770   -25.7560 hc         1 A1D       0.037533
     47 H22        -61.8770     5.1340   -27.1470 hc         1 A1D       0.037533
     48 H23        -61.5670     6.8390   -26.7860 hc         1 A1D       0.037533
     49 H24        -62.1740     9.4990   -21.6120 ha         1 A1D       0.124000
     50 H25        -61.2180     4.7680   -22.6060 hn         1 A1D       0.508000
     51 C1         -61.6920     6.9560   -20.6820 c3         1 A1D      -0.053800
@<TRIPOS>BOND
     1     1    18 ar  
     2     1    23 ar  
     3     1    26 1   
     4     2     3 ar  
     5     2     7 1   
     6     2    23 ar  
     7     3    15 ar  
     8     3    24 1   
     9     4    10 ar  
    10     4    11 ar  
    11     4    21 1   
    12     5    11 1   
    13     5    12 2   
    14     5    27 1   
    15     6    22 1   
    16     6    28 1   
    17     6    29 1   
    18     6    30 1   
    19     7     8 1   
    20     7    17 1   
    21     7    31 1   
    22     8    32 1   
    23     8    33 1   
    24     8    34 1   
    25     9    10 ar  
    26     9    20 ar  
    27     9    38 1   
    28    10    39 1   
    29    11    19 ar  
    30    12    21 1   
    31    12    40 1   
    32    13    14 1   
    33    13    21 1   
    34    13    41 1   
    35    13    42 1   
    36    14    22 1   
    37    14    25 2   
    38    15    18 ar  
    39    15    51 1   
    40    16    22 1   
    41    16    43 1   
    42    16    44 1   
    43    16    45 1   
    44    17    46 1   
    45    17    47 1   
    46    17    48 1   
    47    18    49 1   
    48    19    20 ar  
    49    19    24 1   
    50    24    50 1   
    51    35    51 1   
    52    36    51 1   
    53    37    51 1   
@<TRIPOS>SUBSTRUCTURE
     1 A1D         1 TEMP              0 ****  ****    0 ROOT
