@<TRIPOS>MOLECULE
A1E
   26    28     1     0     0
SMALL
abcg2


@<TRIPOS>ATOM
      1 C02         26.7230    97.3670    52.0250 ca         1 A1E       0.109000
      2 C04         26.4580    95.0450    51.3770 ca         1 A1E      -0.023000
      3 C06         25.9520    92.6030    51.3050 c          1 A1E       0.570000
      4 C07         27.4110    92.2590    51.1710 c3         1 A1E      -0.184400
      5 C08         28.0640    92.8140    49.9080 c3         1 A1E       0.087600
      6 C10         27.7220    95.1250    50.7730 ca         1 A1E      -0.096200
      7 C12         29.6300    94.7800    49.6610 cc         1 A1E      -0.076300
      8 C13         30.6620    94.1230    48.7650 c          1 A1E       0.728200
      9 C03         25.9750    96.1860    52.0010 ca         1 A1E      -0.176000
     10 C16         29.6810    96.0670    50.1250 cd         1 A1E      -0.264200
     11 C17         28.4750    96.3210    50.8250 ca         1 A1E      -0.068800
     12 C18         27.9700    97.4630    51.4560 ca         1 A1E      -0.082000
     13 N05         25.6270    93.9230    51.3400 ns         1 A1E      -0.143000
     14 N11         28.4420    94.2040    50.0600 na         1 A1E      -0.058700
     15 O09         25.0820    91.7530    51.3640 o          1 A1E      -0.579000
     16 O14         30.2700    93.1920    48.0360 o          1 A1E      -0.700500
     17 O15         31.7980    94.6210    48.8250 o          1 A1E      -0.700500
     18 CL01        26.0310    98.7550    52.8120 cl         1 A1E      -0.254000
     19 H071        27.4780    91.1730    51.1440 hc         1 A1E       0.075700
     20 H072        27.9620    92.5940    52.0550 hc         1 A1E       0.075700
     21 H081        27.4000    92.6890    49.0490 h1         1 A1E       0.084200
     22 H082        28.9610    92.2450    49.6970 h1         1 A1E       0.084200
     23 H031        25.0000    96.1590    52.4700 ha         1 A1E       0.110000
     24 H161        30.4840    96.7650    49.9530 ha         1 A1E       0.214000
     25 H181        28.5370    98.3840    51.4830 ha         1 A1E       0.122000
     26 H051        24.6420    94.1070    51.4860 hn         1 A1E       0.145000
@<TRIPOS>BOND
     1     1     9 ar  
     2     1    12 ar  
     3     1    18 1   
     4     2     6 ar  
     5     2     9 ar  
     6     2    13 1   
     7     3     4 1   
     8     3    13 1   
     9     3    15 2   
    10     4     5 1   
    11     4    19 1   
    12     4    20 1   
    13     5    14 1   
    14     5    21 1   
    15     5    22 1   
    16     6    11 ar  
    17     6    14 1   
    18     7     8 1   
    19     7    10 2   
    20     7    14 1   
    21     8    16 1   
    22     8    17 1   
    23     9    23 1   
    24    10    11 1   
    25    10    24 1   
    26    11    12 ar  
    27    12    25 1   
    28    13    26 1   
@<TRIPOS>SUBSTRUCTURE
     1 A1E         1 TEMP              0 ****  ****    0 ROOT
