@<TRIPOS>MOLECULE
A1E
   47    49     1     0     0
SMALL
abcg2


@<TRIPOS>ATOM
      1 O1         -25.5210    10.8190     3.2480 o          1 A1E      -0.491100
      2 C2         -25.7160    11.2420     4.3800 c          1 A1E       0.580900
      3 C4         -26.9540    11.3370     6.5100 cc         1 A1E      -0.208600
      4 C6         -28.7170    10.0350     6.1130 cc         1 A1E      -0.148300
      5 C10        -27.4030     7.4210     2.4890 c          1 A1E       0.638100
      6 C13        -28.7810    10.8800     8.3200 c5         1 A1E       0.074600
      7 C14        -30.1660    10.2740     7.9910 c5         1 A1E       0.121500
      8 C15        -29.9700     9.4520     6.6780 c5         1 A1E       0.236600
      9 C20        -24.7440    12.2100     5.0120 cc         1 A1E       0.048900
     10 C22        -23.9320    13.4530     3.1590 c3         1 A1E       0.153900
     11 C23        -24.8530    12.6530     6.2840 cd         1 A1E      -0.168400
     12 C24        -25.9930    12.2170     7.1420 c          1 A1E       0.606900
     13 C26        -23.8670    13.5870     6.9090 c3         1 A1E      -0.043900
     14 C3         -26.8480    10.8570     5.2050 cd         1 A1E      -0.176600
     15 C7         -27.9690    10.0190     4.9450 cd         1 A1E      -0.071300
     16 N11        -26.5210     6.4020     2.5360 nt         1 A1E      -0.596000
     17 N17        -30.6910     9.4940     9.1040 n3         1 A1E      -0.710600
     18 N5         -28.1020    10.8260     7.0310 na         1 A1E       0.078000
     19 O12        -28.0990     7.7050     1.5270 o          1 A1E      -0.548000
     20 O16        -31.0370     9.5930     5.7470 oh         1 A1E      -0.645000
     21 O21        -23.6700    12.5500     4.2530 os         1 A1E      -0.358100
     22 O25        -26.1010    12.6010     8.3040 o          1 A1E      -0.528100
     23 O9         -27.4050     8.1110     3.6510 os         1 A1E      -0.466100
     24 H1         -28.1000     9.8780     2.8160 h1         1 A1E       0.069200
     25 H2         -29.3130     8.9310     3.6990 h1         1 A1E       0.069200
     26 H3         -28.2450    10.2630     9.0430 h1         1 A1E       0.085200
     27 H4         -28.8250    11.9020     8.6840 h1         1 A1E       0.085200
     28 H5         -30.8510    11.0980     7.7280 h1         1 A1E       0.055700
     29 H6         -29.8200     8.3970     6.9230 h1         1 A1E       0.072700
     30 H7         -22.9920    13.5570     2.6240 h1         1 A1E       0.046367
     31 H8         -24.6950    13.0490     2.4960 h1         1 A1E       0.046367
     32 H9         -24.2470    14.4220     3.5520 h1         1 A1E       0.046367
     33 H10        -32.3340     8.3350     9.6590 h1         1 A1E       0.037533
     34 H11        -32.7340     9.5960     8.4750 h1         1 A1E       0.037533
     35 H12        -31.8500     8.1320     7.9820 h1         1 A1E       0.037533
     36 H13        -31.2270     9.7080    11.1130 h1         1 A1E       0.037533
     37 H14        -29.8730    10.7220    10.6120 h1         1 A1E       0.037533
     38 H15        -31.5270    11.1650    10.1420 h1         1 A1E       0.037533
     39 H16        -24.3760    14.4700     7.2980 hc         1 A1E       0.055700
     40 H17        -23.3740    13.1080     7.7580 hc         1 A1E       0.055700
     41 H18        -23.1130    13.8940     6.1900 hc         1 A1E       0.055700
     42 H19        -26.5030     5.7450     1.7750 hn         1 A1E       0.326500
     43 H20        -26.0540     6.1660     3.3950 hn         1 A1E       0.326500
     44 H22        -31.6610     8.8680     5.8720 ho         1 A1E       0.451000
     45 C8         -28.2790     9.2700     3.7010 c3         1 A1E       0.257900
     46 C18        -31.9690     8.8640     8.7800 c3         1 A1E       0.144100
     47 C19        -30.8370    10.3210    10.3010 c3         1 A1E       0.144100
@<TRIPOS>BOND
     1     1     2 2   
     2     2     9 1   
     3     2    14 1   
     4     3    12 1   
     5     3    14 2   
     6     3    18 1   
     7     4     8 1   
     8     4    15 2   
     9     4    18 1   
    10     5    16 1   
    11     5    19 2   
    12     5    23 1   
    13     6     7 1   
    14     6    18 1   
    15     6    26 1   
    16     6    27 1   
    17     7     8 1   
    18     7    17 1   
    19     7    28 1   
    20     8    20 1   
    21     8    29 1   
    22     9    11 2   
    23     9    21 1   
    24    10    21 1   
    25    10    30 1   
    26    10    31 1   
    27    10    32 1   
    28    11    12 1   
    29    11    13 1   
    30    12    22 2   
    31    13    39 1   
    32    13    40 1   
    33    13    41 1   
    34    14    15 1   
    35    15    45 1   
    36    16    42 1   
    37    16    43 1   
    38    17    46 1   
    39    17    47 1   
    40    20    44 1   
    41    23    45 1   
    42    24    45 1   
    43    25    45 1   
    44    33    46 1   
    45    34    46 1   
    46    35    46 1   
    47    36    47 1   
    48    37    47 1   
    49    38    47 1   
@<TRIPOS>SUBSTRUCTURE
     1 A1E         1 TEMP              0 ****  ****    0 ROOT
