@<TRIPOS>MOLECULE
A1E
   48    50     1     0     0
SMALL
abcg2


@<TRIPOS>ATOM
      1 C10        119.5130   115.3500    87.7480 ca         1 A1E      -0.072000
      2 C13        121.4820   113.9900    86.3330 ca         1 A1E      -0.183900
      3 C15        123.4180   113.0690    84.8410 c          1 A1E       0.554800
      4 C21        127.6790   111.2830    83.3790 c3         1 A1E      -0.091100
      5 C22        124.8330   110.8730    82.5630 c          1 A1E       0.576100
      6 C28        117.3340   110.4030    85.6950 ca         1 A1E      -0.146000
      7 C01        116.3570   110.1860    86.6520 ca         1 A1E       0.175000
      8 C03        116.6300   110.1950    88.0070 ca         1 A1E      -0.146000
      9 C04        117.9380   110.4390    88.4130 ca         1 A1E      -0.067000
     10 C05        118.9480   110.6590    87.4810 ca         1 A1E      -0.138300
     11 C06        120.3650   110.9110    87.9450 c3         1 A1E       0.145900
     12 C08        120.6290   113.3260    87.2430 ca         1 A1E      -0.043200
     13 C09        119.6310   113.9920    87.9630 ca         1 A1E      -0.125000
     14 C11        120.3590   116.0340    86.8470 ca         1 A1E      -0.143000
     15 C12        121.3420   115.3730    86.1380 ca         1 A1E      -0.025000
     16 C14        122.3290   112.9550    85.8330 cc         1 A1E       0.298900
     17 C18        125.2120   111.8330    83.6830 c3         1 A1E       0.017700
     18 C19        126.5340   111.4100    84.3630 c3         1 A1E       0.170300
     19 C25        124.0010   108.7080    82.0840 c3         1 A1E       0.151900
     20 C27        118.6340   110.6390    86.1220 ca         1 A1E      -0.067000
     21 N07        120.9990   112.0070    87.2330 na         1 A1E       0.077600
     22 N17        124.1530   111.9430    84.6630 ns         1 A1E      -0.505900
     23 N26        122.0130   111.7880    86.3830 nd         1 A1E      -0.516100
     24 O16        123.6290   114.1220    84.2410 o          1 A1E      -0.583100
     25 O20        126.9000   112.3940    85.3270 oh         1 A1E      -0.653000
     26 O23        124.9520   111.1190    81.3850 o          1 A1E      -0.465000
     27 O24        124.3790   109.7160    83.0470 os         1 A1E      -0.455100
     28 H1         118.7540   115.9070    88.2820 ha         1 A1E       0.116000
     29 H2         128.5960   111.0350    83.9140 hc         1 A1E       0.052367
     30 H3         127.4850   110.4940    82.6520 hc         1 A1E       0.052367
     31 H4         127.8290   112.2220    82.8430 hc         1 A1E       0.052367
     32 H5         117.0770   110.3900    84.6450 ha         1 A1E       0.137000
     33 H6         115.8370   110.0260    88.7230 ha         1 A1E       0.137000
     34 H7         118.1690   110.4670    89.4710 ha         1 A1E       0.123000
     35 H8         120.9970   110.0390    87.7800 h1         1 A1E       0.075200
     36 H9         120.3730   111.1350    89.0130 h1         1 A1E       0.075200
     37 H10        118.9820   113.4690    88.6520 ha         1 A1E       0.124000
     38 H11        120.2280   117.1000    86.7130 ha         1 A1E       0.119000
     39 H12        121.9870   115.8990    85.4500 ha         1 A1E       0.143000
     40 H13        125.3520   112.8140    83.2350 h1         1 A1E       0.124700
     41 H14        126.3640   110.4490    84.8630 h1         1 A1E       0.038700
     42 H15        123.6680   107.8580    82.6720 h1         1 A1E       0.051700
     43 H16        123.1950   109.0790    81.4540 h1         1 A1E       0.051700
     44 H17        124.8590   108.4400    81.4700 h1         1 A1E       0.051700
     45 H18        119.4080   110.8170    85.3860 ha         1 A1E       0.123000
     46 H19        123.8740   111.1160    85.1700 hn         1 A1E       0.340500
     47 H20        126.1910   112.4570    85.9810 ho         1 A1E       0.450000
     48 F02        115.0810   109.9630    86.2430 f          1 A1E      -0.179000
@<TRIPOS>BOND
     1     1    13 ar  
     2     1    14 ar  
     3     1    28 1   
     4     2    12 ar  
     5     2    15 ar  
     6     2    16 1   
     7     3    16 1   
     8     3    22 1   
     9     3    24 2   
    10     4    18 1   
    11     4    29 1   
    12     4    30 1   
    13     4    31 1   
    14     5    17 1   
    15     5    26 2   
    16     5    27 1   
    17     6     7 ar  
    18     6    20 ar  
    19     6    32 1   
    20     7     8 ar  
    21     7    48 1   
    22     8     9 ar  
    23     8    33 1   
    24     9    10 ar  
    25     9    34 1   
    26    10    11 1   
    27    10    20 ar  
    28    11    21 1   
    29    11    35 1   
    30    11    36 1   
    31    12    13 ar  
    32    12    21 1   
    33    13    37 1   
    34    14    15 ar  
    35    14    38 1   
    36    15    39 1   
    37    16    23 2   
    38    17    18 1   
    39    17    22 1   
    40    17    40 1   
    41    18    25 1   
    42    18    41 1   
    43    19    27 1   
    44    19    42 1   
    45    19    43 1   
    46    19    44 1   
    47    20    45 1   
    48    21    23 1   
    49    22    46 1   
    50    25    47 1   
@<TRIPOS>SUBSTRUCTURE
     1 A1E         1 TEMP              0 ****  ****    0 ROOT
