@<TRIPOS>MOLECULE
A1E
   38    39     1     0     0
SMALL
abcg2


@<TRIPOS>ATOM
      1 N1         146.4990   155.6080   152.0930 na         1 A1E       0.067200
      2 N3         149.1130   158.5890   144.5130 n2         1 A1E      -0.891100
      3 C4         146.7100   156.4070   150.9480 ca         1 A1E       0.142800
      4 C5         146.8870   157.7750   151.1210 ca         1 A1E      -0.148000
      5 C6         147.0530   158.6500   150.0530 ca         1 A1E       0.042700
      6 C7         147.2400   160.1150   150.3230 c3         1 A1E      -0.062800
      7 C8         145.3920   154.8210   152.3390 cc         1 A1E      -0.178500
      8 C10        146.7790   154.7260   154.1170 cd         1 A1E      -0.157500
      9 C1         147.0380   158.1080   148.7570 ca         1 A1E      -0.181600
     10 C11        147.3420   155.5600   153.1850 cc         1 A1E      -0.178500
     11 C12        147.4330   153.8670   147.7680 c3         1 A1E      -0.347100
     12 C14        148.2180   159.0800   145.2920 c2         1 A1E       0.690800
     13 C2         146.8930   156.7370   148.5730 ca         1 A1E      -0.003000
     14 C3         146.7480   155.8750   149.6520 ca         1 A1E      -0.271500
     15 C9         145.5410   154.2620   153.5820 cd         1 A1E      -0.157500
     16 N2         147.9800   158.5530   146.5820 ns         1 A1E      -0.487400
     17 N4         147.4140   160.1040   144.9200 nv         1 A1E      -1.059200
     18 O1         145.3060   153.6810   149.2800 o          1 A1E      -0.511000
     19 O2         147.5430   153.4670   150.3440 o          1 A1E      -0.511000
     20 O3         146.4520   160.0170   147.4620 o          1 A1E      -0.580100
     21 S1         146.6900   154.1090   149.3640 sy         1 A1E       1.081500
     22 H1         149.5880   157.8000   144.9400 hn         1 A1E       0.383400
     23 H2         146.8720   158.1670   152.1300 ha         1 A1E       0.139000
     24 H3         146.3280   160.6690   150.0960 hc         1 A1E       0.063033
     25 H4         147.4880   160.2750   151.3710 hc         1 A1E       0.063033
     26 H5         148.0360   160.5360   149.7060 hc         1 A1E       0.063033
     27 H6         144.6060   154.7370   151.6100 h4         1 A1E       0.155500
     28 H7         147.2100   154.4660   155.0700 ha         1 A1E       0.138000
     29 H8         148.2700   156.1060   153.1830 h4         1 A1E       0.155500
     30 H9         148.4320   154.2960   147.7580 h1         1 A1E       0.104700
     31 H10        147.4820   152.7820   147.6680 h1         1 A1E       0.104700
     32 H11        146.8000   154.2840   146.9890 h1         1 A1E       0.104700
     33 H12        146.8900   156.3460   147.5660 ha         1 A1E       0.122000
     34 H13        144.8360   153.6030   154.0630 ha         1 A1E       0.138000
     35 H14        148.5530   157.7550   146.8120 hn         1 A1E       0.319500
     36 H15        146.8910   160.5870   145.6350 hn         1 A1E       0.509500
     37 H16        147.6680   160.5940   144.0780 hn         1 A1E       0.509500
     38 C13        147.1230   158.9960   147.5520 c          1 A1E       0.630700
@<TRIPOS>BOND
     1     1     3 1   
     2     1     7 1   
     3     1    10 1   
     4     2    12 2   
     5     2    22 1   
     6     3     4 ar  
     7     3    14 ar  
     8     4     5 ar  
     9     4    23 1   
    10     5     6 1   
    11     5     9 ar  
    12     6    24 1   
    13     6    25 1   
    14     6    26 1   
    15     7    15 2   
    16     7    27 1   
    17     8    10 2   
    18     8    15 1   
    19     8    28 1   
    20     9    13 ar  
    21     9    38 1   
    22    10    29 1   
    23    11    21 1   
    24    11    30 1   
    25    11    31 1   
    26    11    32 1   
    27    12    16 1   
    28    12    17 1   
    29    13    14 ar  
    30    13    33 1   
    31    14    21 1   
    32    15    34 1   
    33    16    35 1   
    34    16    38 1   
    35    17    36 1   
    36    17    37 1   
    37    18    21 2   
    38    19    21 2   
    39    20    38 2   
@<TRIPOS>SUBSTRUCTURE
     1 A1E         1 TEMP              0 ****  ****    0 ROOT
