@<TRIPOS>MOLECULE
A1E
   36    38     1     0     0
SMALL
abcg2


@<TRIPOS>ATOM
      1 O01        142.2740   131.1030   100.5490 o          1 A1E      -0.457000
      2 C02        142.0830   129.9250   100.6630 c          1 A1E       0.698300
      3 C03        142.6750   128.8410    99.9490 cc         1 A1E      -0.402200
      4 C04        142.3600   127.5390   100.1860 cd         1 A1E       0.119800
      5 C05        143.0850   126.4830    99.4110 c3         1 A1E      -0.052200
      6 C06        144.2300   125.8610   100.2160 c3         1 A1E      -0.064400
      7 C07        145.0040   124.8490    99.3770 c3         1 A1E      -0.041400
      8 C08        146.1390   124.1810   100.1240 cx         1 A1E      -0.107000
      9 C09        145.7200   123.2530   101.2400 c3         1 A1E      -0.057100
     10 C10        147.3610   123.8110    99.3380 cx         1 A1E      -0.129400
     11 C11        147.4040   124.9660   100.2990 cx         1 A1E      -0.129400
     12 C12        141.3840   127.2360   101.1970 cd         1 A1E      -0.361200
     13 C13        140.8310   128.2990   101.8660 cc         1 A1E       0.370700
     14 O14        141.1490   129.5520   101.6330 os         1 A1E      -0.366200
     15 N15        139.9010   128.1620   102.8320 ns         1 A1E      -0.520600
     16 C16        139.4070   126.9390   103.2340 c          1 A1E       0.634000
     17 O17        138.5750   126.8310   104.1000 o          1 A1E      -0.522000
     18 N18        139.9480   125.8830   102.5550 ns         1 A1E      -0.477500
     19 C19        140.9090   125.9060   101.5520 c          1 A1E       0.619200
     20 O20        141.2710   124.8590   101.0580 o          1 A1E      -0.516000
     21 H1         143.4030   129.1020    99.1930 ha         1 A1E       0.223000
     22 H4         143.4990   126.9480    98.5140 hc         1 A1E       0.066200
     23 H5         142.4000   125.7030    99.0810 hc         1 A1E       0.066200
     24 H6         144.9080   126.6510   100.5500 hc         1 A1E       0.049200
     25 H7         143.8370   125.3830   101.1150 hc         1 A1E       0.049200
     26 H8         144.3160   124.0810    99.0060 hc         1 A1E       0.042700
     27 H9         145.3990   125.3570    98.4910 hc         1 A1E       0.042700
     28 H10        146.5860   122.7820   101.7090 hc         1 A1E       0.036367
     29 H11        145.1730   123.7800   102.0230 hc         1 A1E       0.036367
     30 H12        145.0740   122.4570   100.8630 hc         1 A1E       0.036367
     31 H13        147.3770   124.0290    98.2760 hc         1 A1E       0.069700
     32 H14        147.8870   122.9040    99.6100 hc         1 A1E       0.069700
     33 H15        147.9650   124.8440   101.2180 hc         1 A1E       0.069700
     34 H16        147.4440   125.9680    99.8870 hc         1 A1E       0.069700
     35 H18        139.6030   124.9680   102.8190 hn         1 A1E       0.351500
     36 H2         139.5370   128.9870   103.2950 hn         1 A1E       0.481000
@<TRIPOS>BOND
     1     1     2 2   
     2     2     3 1   
     3     2    14 1   
     4     3     4 2   
     5     3    21 1   
     6     4     5 1   
     7     4    12 1   
     8     5     6 1   
     9     5    22 1   
    10     5    23 1   
    11     6     7 1   
    12     6    24 1   
    13     6    25 1   
    14     7     8 1   
    15     7    26 1   
    16     7    27 1   
    17     8     9 1   
    18     8    10 1   
    19     8    11 1   
    20     9    28 1   
    21     9    29 1   
    22     9    30 1   
    23    10    11 1   
    24    10    31 1   
    25    10    32 1   
    26    11    33 1   
    27    11    34 1   
    28    12    13 2   
    29    12    19 1   
    30    13    14 1   
    31    13    15 1   
    32    15    16 1   
    33    15    36 1   
    34    16    17 2   
    35    16    18 1   
    36    18    19 1   
    37    18    35 1   
    38    19    20 2   
@<TRIPOS>SUBSTRUCTURE
     1 A1E         1 TEMP              0 ****  ****    0 ROOT
