@<TRIPOS>MOLECULE
A1E
   17    17     1     0     0
SMALL
abcg2


@<TRIPOS>ATOM
      1 C4         -10.4260   -15.2730     4.8100 cy         1 A1E       0.155000
      2 C5         -10.7230   -14.7420     2.7750 cy         1 A1E       0.056700
      3 C6         -10.9900   -13.4330     2.0010 c          1 A1E       0.736000
      4 N1          -9.5870   -14.7480     3.7190 n6         1 A1E      -0.813400
      5 C3         -11.6410   -15.0680     3.9410 cv         1 A1E      -0.115400
      6 C1         -14.0350   -14.9630     3.1640 c3         1 A1E      -0.047900
      7 C2         -12.9440   -15.1560     4.1670 c2         1 A1E      -0.234200
      8 O1         -11.8360   -13.5310     1.0860 o          1 A1E      -0.718000
      9 O2         -10.3750   -12.4120     2.3470 o          1 A1E      -0.718000
     10 H1         -10.3780   -14.6970     5.7400 h1         1 A1E       0.025700
     11 H2         -10.2520   -16.3260     5.0600 h1         1 A1E       0.025700
     12 H3         -10.6920   -15.5710     2.0550 h1         1 A1E       0.030700
     13 H4          -8.8400   -15.3730     3.4490 hn         1 A1E       0.370000
     14 H6         -14.7000   -14.1460     3.4560 hc         1 A1E       0.037367
     15 H7         -13.6370   -14.7360     2.1780 hc         1 A1E       0.037367
     16 H8         -14.6590   -15.8570     3.0930 hc         1 A1E       0.037367
     17 H9         -13.2560   -15.4140     5.1770 ha         1 A1E       0.135000
@<TRIPOS>BOND
     1     1     4 1   
     2     1     5 1   
     3     1    10 1   
     4     1    11 1   
     5     2     3 1   
     6     2     4 1   
     7     2     5 1   
     8     2    12 1   
     9     3     8 1   
    10     3     9 1   
    11     4    13 1   
    12     5     7 2   
    13     6     7 1   
    14     6    14 1   
    15     6    15 1   
    16     6    16 1   
    17     7    17 1   
@<TRIPOS>SUBSTRUCTURE
     1 A1E         1 TEMP              0 ****  ****    0 ROOT
