@<TRIPOS>MOLECULE
A1E
   42    45     1     0     0
SMALL
abcg2


@<TRIPOS>ATOM
      1 C10          8.5910    13.3900    -1.9440 cc         1 A1E      -0.028600
      2 C13          5.2700    12.1280    -1.7380 cf         1 A1E       0.313900
      3 C17          7.3560     9.9770    -1.5720 c3         1 A1E       0.167300
      4 C20          6.2740     9.2340    -5.1870 ca         1 A1E      -0.133000
      5 C21          5.7600     7.9570    -5.1000 ca         1 A1E      -0.039000
      6 C22          5.7700     7.3400    -3.8480 ca         1 A1E       0.069400
      7 C02         10.5600    17.8820    -2.2350 ca         1 A1E       0.112500
      8 C03          9.3540    18.5780    -2.2800 ca         1 A1E       0.092100
      9 C05          8.1960    17.8010    -2.2450 ca         1 A1E       0.112500
     10 C07          8.2100    16.4310    -2.1700 ca         1 A1E      -0.088500
     11 C08          9.4380    15.7580    -2.1280 ca         1 A1E      -0.075800
     12 C09          9.5610    14.3220    -2.0380 cf         1 A1E      -0.017200
     13 C12          6.6960    12.4080    -1.7980 cd         1 A1E       0.417600
     14 C18          6.8080     9.3140    -2.8090 ca         1 A1E      -0.121300
     15 C19          6.7900     9.9000    -4.0630 ca         1 A1E      -0.073000
     16 C23          6.2880     8.0210    -2.7360 ca         1 A1E      -0.078200
     17 C25          5.5700     6.0230    -2.1970 cc         1 A1E       0.416700
     18 C27          8.8810    11.9420    -1.8300 c          1 A1E       0.540200
     19 C29         10.6180    16.5120    -2.1650 ca         1 A1E      -0.088500
     20 F06          7.0220    18.4520    -2.2870 f          1 A1E      -0.169000
     21 N11          7.2220    13.5820    -1.9200 nc         1 A1E      -0.567300
     22 N14          4.4630    13.1080    -1.8190 n2         1 A1E      -0.267700
     23 N16          7.6200    11.3840    -1.7320 n          1 A1E      -0.359300
     24 N24          6.1430     7.1420    -1.6940 na         1 A1E      -0.321600
     25 N26          5.3290     6.0920    -3.4750 nd         1 A1E      -0.568100
     26 O04          9.3750    19.9100    -2.3540 oh         1 A1E      -0.502100
     27 O15          3.1780    12.7300    -1.7550 oh         1 A1E      -0.501000
     28 O28          9.9330    11.3420    -1.8110 o          1 A1E      -0.498000
     29 H1           4.9280    11.1010    -1.6310 h4         1 A1E       0.027800
     30 H2           6.6750     9.8340    -0.7290 h1         1 A1E       0.065200
     31 H3           8.2970     9.5060    -1.2820 h1         1 A1E       0.065200
     32 H4           6.2840     9.7440    -6.1410 ha         1 A1E       0.119000
     33 H5           5.3620     7.4480    -5.9680 ha         1 A1E       0.133000
     34 H6           7.2760    15.8870    -2.1430 ha         1 A1E       0.157000
     35 H7          10.5770    13.9400    -2.0350 ha         1 A1E       0.197000
     36 H8           7.1820    10.9000    -4.1970 ha         1 A1E       0.119000
     37 H9           5.3500     5.1750    -1.5650 h5         1 A1E       0.063800
     38 H10         11.5840    16.0240    -2.1340 ha         1 A1E       0.157000
     39 H13          6.4090     7.2790    -0.7320 hn         1 A1E       0.356000
     40 H15          8.4830    20.2770    -2.3700 ho         1 A1E       0.485000
     41 H16          2.6730    13.5490    -1.8280 ho         1 A1E       0.483000
     42 F01         11.6910    18.5970    -2.2610 f          1 A1E      -0.169000
@<TRIPOS>BOND
     1     1    12 2   
     2     1    18 1   
     3     1    21 1   
     4     2    13 1   
     5     2    22 2   
     6     2    29 1   
     7     3    14 1   
     8     3    23 1   
     9     3    30 1   
    10     3    31 1   
    11     4     5 ar  
    12     4    15 ar  
    13     4    32 1   
    14     5     6 ar  
    15     5    33 1   
    16     6    16 ar  
    17     6    25 1   
    18     7     8 ar  
    19     7    19 ar  
    20     7    42 1   
    21     8     9 ar  
    22     8    26 1   
    23     9    10 ar  
    24     9    20 1   
    25    10    11 ar  
    26    10    34 1   
    27    11    12 1   
    28    11    19 ar  
    29    12    35 1   
    30    13    21 2   
    31    13    23 1   
    32    14    15 ar  
    33    14    16 ar  
    34    15    36 1   
    35    16    24 1   
    36    17    24 1   
    37    17    25 2   
    38    17    37 1   
    39    18    23 1   
    40    18    28 2   
    41    19    38 1   
    42    22    27 1   
    43    24    39 1   
    44    26    40 1   
    45    27    41 1   
@<TRIPOS>SUBSTRUCTURE
     1 A1E         1 TEMP              0 ****  ****    0 ROOT
