@<TRIPOS>MOLECULE
A1E
   74    77     1     0     0
SMALL
abcg2


@<TRIPOS>ATOM
      1 C8         -18.4000    13.7370    16.9800 c5         1 A1E      -0.033500
      2 C5         -14.1050    11.7290    16.3160 c3         1 A1E      -0.090100
      3 C6         -16.0850    12.9890    17.3920 c5         1 A1E      -0.064700
      4 N1         -23.8450    17.3440    15.6340 ns         1 A1E      -0.502900
      5 C4         -15.3550    11.6530    17.1740 c5         1 A1E      -0.058700
      6 C21        -21.3800    17.5320    12.7830 ce         1 A1E       0.366100
      7 C23        -19.3450    16.3090    13.3940 cf         1 A1E      -0.077000
      8 C24        -18.2350    16.0950    14.2890 cf         1 A1E      -0.202000
      9 C25        -17.5760    14.9350    14.3640 c2         1 A1E      -0.165200
     10 C27        -18.3900    12.6900    18.1040 c5         1 A1E      -0.068400
     11 C29        -16.4430    11.4510    19.2990 c5         1 A1E      -0.070400
     12 C10        -19.5350    15.9630    17.4700 ce         1 A1E      -0.205000
     13 C11        -20.6970    15.7870    16.6280 ce         1 A1E      -0.111000
     14 C12        -21.7100    16.6640    16.5650 cf         1 A1E      -0.286200
     15 C13        -22.8250    16.4580    15.6160 c          1 A1E       0.604300
     16 C14        -24.1830    18.3420    16.6310 c3         1 A1E       0.111000
     17 C15        -25.0800    19.4250    16.0430 c3         1 A1E      -0.083400
     18 C16        -24.3940    20.5590    15.2880 c3         1 A1E      -0.067400
     19 C17        -23.6630    20.2450    13.9870 c5         1 A1E       0.004700
     20 C18        -22.3280    19.5080    14.1220 c          1 A1E       0.624300
     21 C19        -22.3260    18.4820    13.1080 cf         1 A1E      -0.507400
     22 C20        -23.6360    18.4720    12.4730 c          1 A1E       0.593200
     23 C22        -20.1360    17.3920    13.4950 ce         1 A1E      -0.242000
     24 C26        -16.5520    14.6230    15.4100 c3         1 A1E       0.211500
     25 C28        -16.9630    12.7390    18.6470 c5         1 A1E      -0.069700
     26 C3         -15.1110    11.1560    18.6050 c5         1 A1E      -0.063700
     27 C7         -17.0470    13.4560    16.2740 c5         1 A1E      -0.088700
     28 C9         -18.5120    15.1020    17.5850 c2         1 A1E      -0.179200
     29 N2         -24.3900    19.4250    13.0430 ns         1 A1E      -0.488900
     30 O1         -23.9890    17.6950    11.5770 o          1 A1E      -0.611000
     31 O3         -15.3510    14.3230    14.7260 oh         1 A1E      -0.655000
     32 O4         -21.4730    19.8290    14.9250 o          1 A1E      -0.553100
     33 O5         -22.8230    15.5350    14.8060 o          1 A1E      -0.620100
     34 H1         -19.2260    13.5620    16.2890 hc         1 A1E       0.067700
     35 H2         -13.5840    10.7720    16.2780 hc         1 A1E       0.036700
     36 H3         -14.3370    12.0030    15.2870 hc         1 A1E       0.036700
     37 H4         -13.4030    12.4680    16.7150 hc         1 A1E       0.036700
     38 H5         -15.3360    13.7630    17.6060 hc         1 A1E       0.045700
     39 H6         -24.5950    17.1080    14.9990 hn         1 A1E       0.310500
     40 H9         -16.0590    10.9540    16.7010 hc         1 A1E       0.051700
     41 H10        -19.5730    15.5170    12.6890 ha         1 A1E       0.194000
     42 H12        -17.9980    16.8940    14.9840 ha         1 A1E       0.182000
     43 H13        -17.8240    14.1290    13.6760 ha         1 A1E       0.184000
     44 H14        -19.1540    12.8740    18.8610 hc         1 A1E       0.050700
     45 H15        -18.5930    11.7050    17.6720 hc         1 A1E       0.050700
     46 H16        -16.3450    11.5410    20.3820 hc         1 A1E       0.045700
     47 H17        -17.1360    10.6220    19.1140 hc         1 A1E       0.045700
     48 H18        -14.0500     8.2270    20.1790 hc         1 A1E       0.032033
     49 H19        -13.6670     9.8850    20.6300 hc         1 A1E       0.032033
     50 H20        -15.3230     9.2990    20.7480 hc         1 A1E       0.032033
     51 H21        -19.4860    16.8880    18.0350 ha         1 A1E       0.175000
     52 H22        -20.7380    14.9090    15.9950 ha         1 A1E       0.194000
     53 H23        -21.6970    17.5440    17.1950 ha         1 A1E       0.185000
     54 H24        -24.7000    17.8710    17.4730 h1         1 A1E       0.045200
     55 H25        -23.2780    18.7970    17.0320 h1         1 A1E       0.045200
     56 H26        -25.6170    19.8840    16.8750 hc         1 A1E       0.047700
     57 H27        -25.8530    18.9630    15.4210 hc         1 A1E       0.047700
     58 H28        -23.6780    21.0580    15.9470 hc         1 A1E       0.052700
     59 H29        -25.1550    21.3100    15.0620 hc         1 A1E       0.052700
     60 H30        -23.4180    21.2100    13.5230 h1         1 A1E       0.064700
     61 H32        -19.9150    18.1520    14.2310 ha         1 A1E       0.216000
     62 H33        -16.4130    15.5060    16.0510 h1         1 A1E       0.036700
     63 H34        -16.8680    13.5750    19.3450 hc         1 A1E       0.051700
     64 H35        -14.3340    11.7940    19.0510 hc         1 A1E       0.046700
     65 H36        -17.2220    12.6120    15.5940 hc         1 A1E       0.065700
     66 H37        -17.6980    15.4010    18.2390 ha         1 A1E       0.170000
     67 H38        -25.3010    19.6770    12.6900 hn         1 A1E       0.330500
     68 H39        -22.5450    16.8450    11.4820 ho         1 A1E       0.541000
     69 H40        -14.6490    14.2130    15.3760 ho         1 A1E       0.447000
     70 C2         -14.6630     9.7060    18.7120 c3         1 A1E      -0.067400
     71 C1         -14.4150     9.2540    20.1450 c3         1 A1E      -0.089100
     72 O2         -21.6200    16.6780    11.8160 oh         1 A1E      -0.525100
     73 H7         -15.4230     9.0650    18.2500 hc         1 A1E       0.039200
     74 H8         -13.7480     9.5580    18.1320 hc         1 A1E       0.039200
@<TRIPOS>BOND
     1     1    10 1   
     2     1    27 1   
     3     1    28 1   
     4     1    34 1   
     5     2     5 1   
     6     2    35 1   
     7     2    36 1   
     8     2    37 1   
     9     3     5 1   
    10     3    25 1   
    11     3    27 1   
    12     3    38 1   
    13     4    15 1   
    14     4    16 1   
    15     4    39 1   
    16     5    26 1   
    17     5    40 1   
    18     6    21 2   
    19     6    23 1   
    20     6    72 1   
    21     7     8 1   
    22     7    23 2   
    23     7    41 1   
    24     8     9 2   
    25     8    42 1   
    26     9    24 1   
    27     9    43 1   
    28    10    25 1   
    29    10    44 1   
    30    10    45 1   
    31    11    25 1   
    32    11    26 1   
    33    11    46 1   
    34    11    47 1   
    35    12    13 1   
    36    12    28 2   
    37    12    51 1   
    38    13    14 2   
    39    13    52 1   
    40    14    15 1   
    41    14    53 1   
    42    15    33 2   
    43    16    17 1   
    44    16    54 1   
    45    16    55 1   
    46    17    18 1   
    47    17    56 1   
    48    17    57 1   
    49    18    19 1   
    50    18    58 1   
    51    18    59 1   
    52    19    20 1   
    53    19    29 1   
    54    19    60 1   
    55    20    21 1   
    56    20    32 2   
    57    21    22 1   
    58    22    29 1   
    59    22    30 2   
    60    23    61 1   
    61    24    27 1   
    62    24    31 1   
    63    24    62 1   
    64    25    63 1   
    65    26    64 1   
    66    26    70 1   
    67    27    65 1   
    68    28    66 1   
    69    29    67 1   
    70    31    69 1   
    71    48    71 1   
    72    49    71 1   
    73    50    71 1   
    74    68    72 1   
    75    70    71 1   
    76    70    73 1   
    77    70    74 1   
@<TRIPOS>SUBSTRUCTURE
     1 A1E         1 TEMP              0 ****  ****    0 ROOT
