@<TRIPOS>MOLECULE
A1E
   25    26     1     0     0
SMALL
abcg2


@<TRIPOS>ATOM
      1 C02         97.8100   115.6550    70.6830 c          1 A1E       0.717600
      2 C04         96.3180   115.3330    70.6030 ca         1 A1E      -0.167600
      3 C05         95.4560   115.7040    71.6640 ca         1 A1E      -0.033000
      4 C06         94.1050   115.4460    71.6620 ca         1 A1E      -0.174000
      5 C07         93.5990   114.7790    70.5390 ca         1 A1E      -0.082200
      6 C08         94.4320   114.4050    69.4810 ca         1 A1E      -0.004600
      7 C09         95.8020   114.6810    69.5030 ca         1 A1E      -0.023000
      8 C14         91.0930   113.6800    72.1380 c3         1 A1E      -0.105100
      9 C15         90.6620   115.8950    70.9830 c3         1 A1E      -0.105100
     10 N10         93.6650   113.7810    68.5400 nc         1 A1E      -0.234400
     11 N11         92.4590   113.7610    68.9580 nd         1 A1E      -0.217400
     12 N12         92.3750   114.3460    70.1490 na         1 A1E       0.047600
     13 O01         98.2000   116.2040    71.7310 o          1 A1E      -0.717500
     14 O03         98.4990   115.3400    69.6950 o          1 A1E      -0.717500
     15 H051        95.8880   116.2130    72.5150 ha         1 A1E       0.132000
     16 H061        93.4810   115.7490    72.4920 ha         1 A1E       0.098000
     17 H091        96.4400   114.3910    68.6780 ha         1 A1E       0.147000
     18 H131        90.3890   113.9490    70.1380 h1         1 A1E       0.069700
     19 H143        90.0900   113.6810    72.5640 hc         1 A1E       0.043033
     20 H141        91.3960   112.6430    71.9910 hc         1 A1E       0.043033
     21 H142        91.7630   114.1350    72.8680 hc         1 A1E       0.043033
     22 H152        89.6560   115.9360    71.4000 hc         1 A1E       0.043033
     23 H151        91.3220   116.4360    71.6610 hc         1 A1E       0.043033
     24 H153        90.6520   116.4120    70.0250 hc         1 A1E       0.043033
     25 C13         91.0820   114.4420    70.8200 c3         1 A1E       0.110300
@<TRIPOS>BOND
     1     1     2 1   
     2     1    13 1   
     3     1    14 1   
     4     2     3 ar  
     5     2     7 ar  
     6     3     4 ar  
     7     3    15 1   
     8     4     5 ar  
     9     4    16 1   
    10     5     6 ar  
    11     5    12 1   
    12     6     7 ar  
    13     6    10 1   
    14     7    17 1   
    15     8    19 1   
    16     8    20 1   
    17     8    21 1   
    18     8    25 1   
    19     9    22 1   
    20     9    23 1   
    21     9    24 1   
    22     9    25 1   
    23    10    11 2   
    24    11    12 1   
    25    12    25 1   
    26    18    25 1   
@<TRIPOS>SUBSTRUCTURE
     1 A1E         1 TEMP              0 ****  ****    0 ROOT
