@<TRIPOS>MOLECULE
A1E
   33    34     1     0     0
SMALL
abcg2


@<TRIPOS>ATOM
      1 N04          2.9530    19.3070    -6.1200 ns         1 A1E      -0.506900
      2 C09          2.1040    18.8410    -5.0320 c6         1 A1E       0.044700
      3 C10          0.8950    18.1110    -5.6240 c          1 A1E       0.557000
      4 O01         -0.2330    18.1850    -5.1600 o          1 A1E      -0.553000
      5 C12          1.7110    19.9980    -4.1170 c3         1 A1E      -0.081400
      6 C13          2.6940    20.3080    -2.9790 c3         1 A1E      -0.063700
      7 C15          2.7270    19.1930    -1.9380 c3         1 A1E      -0.092100
      8 C14          4.1040    20.6430    -3.4540 c3         1 A1E      -0.092100
      9 N03          1.2010    17.3570    -6.6840 n          1 A1E      -0.412800
     10 C05          2.5500    17.2340    -7.2240 c5         1 A1E       0.023700
     11 C11          3.2760    18.5610    -7.1860 c          1 A1E       0.561000
     12 O02          4.0760    18.8970    -8.0420 o          1 A1E      -0.549000
     13 C06          2.3130    16.6630    -8.6160 c5         1 A1E      -0.073400
     14 C08          1.0890    15.7750    -8.4030 c5         1 A1E      -0.099400
     15 C07          0.2250    16.5680    -7.4250 c5         1 A1E       0.105000
     16 H18          3.4130    20.1990    -6.0170 hn         1 A1E       0.328500
     17 H12          2.6470    18.0860    -4.4440 h1         1 A1E       0.065700
     18 H13          1.5570    20.8920    -4.7290 hc         1 A1E       0.068700
     19 H14          0.7430    19.7670    -3.6730 hc         1 A1E       0.068700
     20 H1           2.2950    21.2000    -2.4860 hc         1 A1E       0.051700
     21 H2           3.3580    19.4710    -1.0930 hc         1 A1E       0.035367
     22 H3           1.7290    18.9790    -1.5520 hc         1 A1E       0.035367
     23 H4           3.1300    18.2640    -2.3480 hc         1 A1E       0.035367
     24 H15          4.7250    20.9580    -2.6150 hc         1 A1E       0.035367
     25 H16          4.5960    19.7810    -3.9090 hc         1 A1E       0.035367
     26 H17          4.1060    21.4590    -4.1810 hc         1 A1E       0.035367
     27 H5           3.1350    16.5220    -6.6240 h1         1 A1E       0.069700
     28 H6           3.1770    16.1180    -8.9900 hc         1 A1E       0.069200
     29 H7           2.0870    17.4650    -9.3210 hc         1 A1E       0.069200
     30 H10          0.5610    15.5540    -9.3300 hc         1 A1E       0.056200
     31 H11          1.3870    14.8250    -7.9560 hc         1 A1E       0.056200
     32 H8          -0.4750    17.2270    -7.9440 h1         1 A1E       0.058700
     33 H9          -0.3500    15.9280    -6.7560 h1         1 A1E       0.058700
@<TRIPOS>BOND
     1     1     2 1   
     2     1    11 1   
     3     1    16 1   
     4     2     3 1   
     5     2     5 1   
     6     2    17 1   
     7     3     4 2   
     8     3     9 1   
     9     5     6 1   
    10     5    18 1   
    11     5    19 1   
    12     6     7 1   
    13     6     8 1   
    14     6    20 1   
    15     7    21 1   
    16     7    22 1   
    17     7    23 1   
    18     8    24 1   
    19     8    25 1   
    20     8    26 1   
    21     9    10 1   
    22     9    15 1   
    23    10    11 1   
    24    10    13 1   
    25    10    27 1   
    26    11    12 2   
    27    13    14 1   
    28    13    28 1   
    29    13    29 1   
    30    14    15 1   
    31    14    30 1   
    32    14    31 1   
    33    15    32 1   
    34    15    33 1   
@<TRIPOS>SUBSTRUCTURE
     1 A1E         1 TEMP              0 ****  ****    0 ROOT
