@<TRIPOS>MOLECULE
A1E
   24    26     1     0     0
SMALL
abcg2


@<TRIPOS>ATOM
      1 C10         98.4230   100.4970   100.7960 c5         1 A1E       0.058600
      2 C01        102.2840    97.4240   102.5590 ca         1 A1E       0.153000
      3 C02        101.0990    97.8830   103.1150 ca         1 A1E      -0.095000
      4 C03        100.6150    99.1260   102.7430 ca         1 A1E      -0.068000
      5 C04        101.3060    99.9040   101.8160 ca         1 A1E      -0.098000
      6 C05        102.4960    99.4280   101.2740 ca         1 A1E      -0.068000
      7 C06        102.9910    98.1880   101.6440 ca         1 A1E      -0.095000
      8 C07        100.8190   101.2310   101.4270 cc         1 A1E       0.015000
      9 C08        101.5080   102.3930   101.4590 cd         1 A1E      -0.281000
     10 S01        100.5670   103.7190   100.8880 ss         1 A1E       0.539000
     11 C09         99.2580   102.6870   100.6250 cc         1 A1E      -0.259300
     12 N01         99.5400   101.4350   100.9430 na         1 A1E       0.009300
     13 C11         97.4810   101.1530    99.7970 c5         1 A1E      -0.001400
     14 S02         97.6770   102.9660   100.0260 ss         1 A1E       0.104000
     15 H1          97.9530   100.3660   101.7710 h1         1 A1E       0.111700
     16 H2         100.5610    97.2850   103.8370 ha         1 A1E       0.152500
     17 H3          99.7060    99.4890   103.2050 ha         1 A1E       0.124500
     18 H4         103.0380   100.0210   100.5490 ha         1 A1E       0.124500
     19 H5         103.9140    97.8220   101.2150 ha         1 A1E       0.152500
     20 H6         102.5210   102.5450   101.7970 h4         1 A1E       0.209000
     21 H7          96.4440   100.8880    99.9840 h1         1 A1E       0.121200
     22 H10         98.7860    99.5390   100.4330 h1         1 A1E       0.111700
     23 H8          97.7430   100.9150    98.7690 h1         1 A1E       0.121200
     24 CL         102.8880    95.8730   103.0180 cl         1 A1E      -0.141000
@<TRIPOS>BOND
     1     1    12 1   
     2     1    13 1   
     3     1    15 1   
     4     1    22 1   
     5     2     3 ar  
     6     2     7 ar  
     7     2    24 1   
     8     3     4 ar  
     9     3    16 1   
    10     4     5 ar  
    11     4    17 1   
    12     5     6 ar  
    13     5     8 1   
    14     6     7 ar  
    15     6    18 1   
    16     7    19 1   
    17     8     9 2   
    18     8    12 1   
    19     9    10 1   
    20     9    20 1   
    21    10    11 1   
    22    11    12 2   
    23    11    14 1   
    24    13    14 1   
    25    13    21 1   
    26    13    23 1   
@<TRIPOS>SUBSTRUCTURE
     1 A1E         1 TEMP              0 ****  ****    0 ROOT
