@<TRIPOS>MOLECULE
A1E
   28    28     1     0     0
SMALL
abcg2


@<TRIPOS>ATOM
      1 S10         78.0590   114.6600   106.4460 s6         1 A1E       1.182100
      2 O11         77.6260   115.9140   107.0540 o          1 A1E      -0.569500
      3 O12         77.8420   113.4360   107.2130 o          1 A1E      -0.569500
      4 C13         77.2450   114.4520   104.8810 c3         1 A1E      -0.354100
      5 N           79.6250   114.8830   106.0050 n7         1 A1E      -0.864300
      6 CA          80.3800   113.7970   105.3880 c3         1 A1E       0.048500
      7 C           81.7020   113.5830   106.1800 c          1 A1E       0.720000
      8 O           81.8740   114.3090   107.1790 o          1 A1E      -0.706500
      9 CB          80.6570   114.1050   103.9090 c3         1 A1E      -0.008100
     10 CG          81.3790   115.4070   103.7120 ca         1 A1E      -0.054300
     11 CD1         80.6710   116.5960   103.5490 ca         1 A1E      -0.067500
     12 CD2         82.7700   115.4670   103.7210 ca         1 A1E      -0.067500
     13 CE1         81.3210   117.8130   103.4000 ca         1 A1E      -0.160500
     14 CE2         83.4420   116.6730   103.5730 ca         1 A1E      -0.160500
     15 CZ          82.7020   117.8270   103.4180 ca         1 A1E       0.145000
     16 F           83.3480   118.9970   103.2710 f          1 A1E      -0.202000
     17 H1          76.1810   114.3390   105.0860 h1         1 A1E       0.090033
     18 H2          77.4170   115.3260   104.2590 h1         1 A1E       0.090033
     19 H3          77.6110   113.5550   104.3860 h1         1 A1E       0.090033
     20 H4          80.1770   115.2480   106.7880 hn         1 A1E       0.528000
     21 H5          79.8230   112.8540   105.4360 h1         1 A1E       0.044700
     22 H7          79.7110   114.1280   103.3630 hc         1 A1E       0.036700
     23 H8          81.2350   113.2810   103.4920 hc         1 A1E       0.036700
     24 H9          79.5880   116.5740   103.5340 ha         1 A1E       0.122500
     25 H10         83.3440   114.5580   103.8490 ha         1 A1E       0.122500
     26 H11         80.7610   118.7310   103.2720 ha         1 A1E       0.116000
     27 H12         84.5240   116.7120   103.5780 ha         1 A1E       0.116000
     28 O1          82.4570   112.7040   105.7360 o          1 A1E      -0.706500
@<TRIPOS>BOND
     1     1     2 2   
     2     1     3 2   
     3     1     4 1   
     4     1     5 1   
     5     4    17 1   
     6     4    18 1   
     7     4    19 1   
     8     5     6 1   
     9     5    20 1   
    10     6     7 1   
    11     6     9 1   
    12     6    21 1   
    13     7     8 1   
    14     7    28 1   
    15     9    10 1   
    16     9    22 1   
    17     9    23 1   
    18    10    11 ar  
    19    10    12 ar  
    20    11    13 ar  
    21    11    24 1   
    22    12    14 ar  
    23    12    25 1   
    24    13    15 ar  
    25    13    26 1   
    26    14    15 ar  
    27    14    27 1   
    28    15    16 1   
@<TRIPOS>SUBSTRUCTURE
     1 A1E         1 TEMP              0 ****  ****    0 ROOT
