@<TRIPOS>MOLECULE
A1E
   64    67     1     0     0
SMALL
abcg2


@<TRIPOS>ATOM
      1 C14        130.4850   136.8810   136.2360 c3         1 A1E      -0.064100
      2 C13        128.8800   137.4050   132.8390 ca         1 A1E      -0.101500
      3 C12        129.4530   137.6530   134.0770 ca         1 A1E      -0.106000
      4 C11        129.9070   136.6090   134.8780 ca         1 A1E      -0.070300
      5 C10        129.7710   135.3030   134.4090 ca         1 A1E      -0.106000
      6 C01        124.3590   136.3470   131.3360 c3         1 A1E      -0.079100
      7 C03        126.7900   135.9650   130.8370 cc         1 A1E       0.423800
      8 C05        127.7570   135.3510   129.0420 ca         1 A1E       0.002400
      9 C06        128.7650   135.4480   130.0010 ca         1 A1E      -0.035200
     10 C08        128.7350   136.0980   132.4000 ca         1 A1E      -0.009200
     11 C09        129.1840   135.0420   133.1810 ca         1 A1E      -0.101500
     12 C15        129.4740   136.6280   137.3620 c3         1 A1E       0.119000
     13 C23        127.3700   140.9750   135.1980 ca         1 A1E      -0.314500
     14 C24        128.6020   141.6090   135.2550 ca         1 A1E      -0.001500
     15 C25        129.3200   141.7890   134.0830 ca         1 A1E      -0.141000
     16 C26        128.8220   141.3530   132.8570 ca         1 A1E      -0.016300
     17 C27        127.5700   140.7350   132.8290 ca         1 A1E      -0.141000
     18 C28        126.8430   140.5370   133.9880 ca         1 A1E      -0.001500
     19 C29        129.5950   141.5470   131.5890 c3         1 A1E      -0.060800
     20 C30        130.0910   135.1780   129.6910 ca         1 A1E      -0.170000
     21 C31        130.3320   134.8090   128.3770 ca         1 A1E       0.370300
     22 C33        128.1010   134.9710   127.7430 ca         1 A1E       0.433300
     23 C34        127.0670   134.8560   126.6690 c3         1 A1E      -0.141400
     24 C35        131.7230   134.4930   127.9120 c3         1 A1E      -0.140400
     25 N04        126.5400   135.6770   129.5940 nd         1 A1E      -0.554100
     26 N07        128.1280   135.8430   131.1450 na         1 A1E      -0.099400
     27 N16        128.2000   137.2860   137.1750 ns         1 A1E      -0.507900
     28 N19        126.7670   139.0830   137.0500 ns         1 A1E      -0.584300
     29 N32        129.3650   134.7130   127.4460 nb         1 A1E      -0.704000
     30 O18        128.9660   139.3790   137.5760 o          1 A1E      -0.603100
     31 O21        125.0340   140.6830   136.3590 o          1 A1E      -0.520500
     32 O22        126.9540   141.5360   137.7270 o          1 A1E      -0.520500
     33 S20        126.4510   140.6810   136.6750 sy         1 A1E       1.191300
     34 H1         131.3460   136.2340   136.4190 hc         1 A1E       0.069200
     35 H2         130.8440   137.9090   136.2890 hc         1 A1E       0.069200
     36 H3         128.5460   138.2230   132.2140 ha         1 A1E       0.131500
     37 H4         129.5570   138.6780   134.4160 ha         1 A1E       0.124500
     38 H5         130.1230   134.4770   135.0150 ha         1 A1E       0.124500
     39 H6         123.6720   136.6510   132.1240 hc         1 A1E       0.045033
     40 H7         124.2290   137.0270   130.4960 hc         1 A1E       0.045033
     41 H8         124.0740   135.3490   131.0060 hc         1 A1E       0.045033
     42 H9         125.8810   135.7150   132.7290 hc         1 A1E       0.050200
     43 H10        126.0350   137.3740   132.2240 hc         1 A1E       0.050200
     44 H11        129.0700   134.0230   132.8320 ha         1 A1E       0.131500
     45 H12        129.2640   135.5620   137.4330 h1         1 A1E       0.058200
     46 H13        129.9130   136.9290   138.3150 h1         1 A1E       0.058200
     47 H14        129.0060   141.9580   136.1940 ha         1 A1E       0.140000
     48 H15        130.2860   142.2750   134.1250 ha         1 A1E       0.120500
     49 H16        127.1620   140.3950   131.8850 ha         1 A1E       0.120500
     50 H17        125.8810   140.0440   133.9420 ha         1 A1E       0.140000
     51 H18        129.1560   142.3450   130.9880 hc         1 A1E       0.052033
     52 H19        130.6320   141.8120   131.7870 hc         1 A1E       0.052033
     53 H20        129.5830   140.6420   130.9810 hc         1 A1E       0.052033
     54 H21        130.8900   135.2480   130.4170 ha         1 A1E       0.130000
     55 H22        127.5230   134.5610   125.7270 hc         1 A1E       0.056033
     56 H23        126.3060   134.1180   126.9330 hc         1 A1E       0.056033
     57 H24        126.5470   135.8040   126.5210 hc         1 A1E       0.056033
     58 H25        132.0210   135.1570   127.0990 hc         1 A1E       0.049367
     59 H26        132.4500   134.5960   128.7160 hc         1 A1E       0.049367
     60 H27        131.7820   133.4730   127.5300 hc         1 A1E       0.049367
     61 H28        127.4370   136.7250   136.8310 hn         1 A1E       0.319500
     62 H29        126.0500   138.4440   136.7230 hn         1 A1E       0.331500
     63 C02        125.7860   136.3730   131.8590 c3         1 A1E      -0.087700
     64 C17        128.0640   138.6170   137.2840 c          1 A1E       0.668100
@<TRIPOS>BOND
     1     1     4 1   
     2     1    12 1   
     3     1    34 1   
     4     1    35 1   
     5     2     3 ar  
     6     2    10 ar  
     7     2    36 1   
     8     3     4 ar  
     9     3    37 1   
    10     4     5 ar  
    11     5    11 ar  
    12     5    38 1   
    13     6    39 1   
    14     6    40 1   
    15     6    41 1   
    16     6    63 1   
    17     7    25 2   
    18     7    26 1   
    19     7    63 1   
    20     8     9 ar  
    21     8    22 ar  
    22     8    25 1   
    23     9    20 ar  
    24     9    26 1   
    25    10    11 ar  
    26    10    26 1   
    27    11    44 1   
    28    12    27 1   
    29    12    45 1   
    30    12    46 1   
    31    13    14 ar  
    32    13    18 ar  
    33    13    33 1   
    34    14    15 ar  
    35    14    47 1   
    36    15    16 ar  
    37    15    48 1   
    38    16    17 ar  
    39    16    19 1   
    40    17    18 ar  
    41    17    49 1   
    42    18    50 1   
    43    19    51 1   
    44    19    52 1   
    45    19    53 1   
    46    20    21 ar  
    47    20    54 1   
    48    21    24 1   
    49    21    29 ar  
    50    22    23 1   
    51    22    29 ar  
    52    23    55 1   
    53    23    56 1   
    54    23    57 1   
    55    24    58 1   
    56    24    59 1   
    57    24    60 1   
    58    27    61 1   
    59    27    64 1   
    60    28    33 1   
    61    28    62 1   
    62    28    64 1   
    63    30    64 2   
    64    31    33 2   
    65    32    33 2   
    66    42    63 1   
    67    43    63 1   
@<TRIPOS>SUBSTRUCTURE
     1 A1E         1 TEMP              0 ****  ****    0 ROOT
