@<TRIPOS>MOLECULE
A1E
   27    26     1     0     0
SMALL
abcg2


@<TRIPOS>ATOM
      1 S10         77.3320   114.7010   104.9840 s6         1 A1E       1.180100
      2 O11         77.0050   114.5840   103.5680 o          1 A1E      -0.574000
      3 O12         76.5030   115.5520   105.8280 o          1 A1E      -0.574000
      4 C13         77.3160   113.0590   105.6790 c3         1 A1E      -0.380100
      5 N           78.8670   115.2670   105.1050 n7         1 A1E      -0.828300
      6 CA          79.9490   114.5530   104.4160 c3         1 A1E       0.057500
      7 CB          80.8550   115.5770   103.6800 c3         1 A1E      -0.015000
      8 CG1         80.0040   116.3620   102.6800 c3         1 A1E      -0.075100
      9 CG2         81.4980   116.5510   104.6680 c3         1 A1E      -0.075100
     10 CG3         81.9550   114.8540   102.8990 c3         1 A1E      -0.075100
     11 C           80.7060   113.6650   105.4420 c          1 A1E       0.697000
     12 O2          80.6270   114.0250   106.6360 o          1 A1E      -0.715000
     13 H1          77.6220   113.1110   106.7210 h1         1 A1E       0.097033
     14 H2          76.3020   112.6690   105.6060 h1         1 A1E       0.097033
     15 H3          77.9970   112.4190   105.1220 h1         1 A1E       0.097033
     16 H4          79.1310   115.3840   106.0840 hn         1 A1E       0.502000
     17 H5          79.5190   113.9050   103.6470 h1         1 A1E       0.053700
     18 H6          79.2100   116.9250   103.1710 hc         1 A1E       0.027144
     19 H7          80.6280   117.0730   102.1340 hc         1 A1E       0.027144
     20 H8          79.5410   115.6970   101.9480 hc         1 A1E       0.027144
     21 H9          82.1570   116.0440   105.3740 hc         1 A1E       0.027144
     22 H10         82.1010   117.2860   104.1300 hc         1 A1E       0.027144
     23 H11         80.7510   117.1020   105.2410 hc         1 A1E       0.027144
     24 H12         82.6540   114.3350   103.5520 hc         1 A1E       0.027144
     25 H13         81.5350   114.1210   102.2080 hc         1 A1E       0.027144
     26 H14         82.5220   115.5770   102.3090 hc         1 A1E       0.027144
     27 O1          81.3150   112.6810   104.9910 o          1 A1E      -0.715000
@<TRIPOS>BOND
     1     1     2 2   
     2     1     3 2   
     3     1     4 1   
     4     1     5 1   
     5     4    13 1   
     6     4    14 1   
     7     4    15 1   
     8     5     6 1   
     9     5    16 1   
    10     6     7 1   
    11     6    11 1   
    12     6    17 1   
    13     7     8 1   
    14     7     9 1   
    15     7    10 1   
    16     8    18 1   
    17     8    19 1   
    18     8    20 1   
    19     9    21 1   
    20     9    22 1   
    21     9    23 1   
    22    10    24 1   
    23    10    25 1   
    24    10    26 1   
    25    11    12 1   
    26    11    27 1   
@<TRIPOS>SUBSTRUCTURE
     1 A1E         1 TEMP              0 ****  ****    0 ROOT
