@<TRIPOS>MOLECULE
A1E
   15    15     1     0     0
SMALL
abcg2


@<TRIPOS>ATOM
      1 N1          39.9280   -17.6520    13.8040 na         1 A1E      -0.104000
      2 C4          38.1930   -17.1540    15.0770 cc         1 A1E      -0.137000
      3 C5          39.3040   -17.9440    14.9850 cd         1 A1E      -0.213000
      4 C6          39.2520   -16.7000    13.1380 cd         1 A1E      -0.120000
      5 C1          36.0240   -15.1140    14.4760 c3         1 A1E      -0.191100
      6 C3          38.1500   -16.3510    13.8990 cc         1 A1E      -0.262600
      7 O1          37.2590   -14.7200    12.4760 o          1 A1E      -0.550100
      8 H1          40.7740   -18.0910    13.4780 hn         1 A1E       0.347000
      9 H2          37.4920   -17.1500    15.8960 ha         1 A1E       0.134000
     10 H3          39.7010   -18.6860    15.6570 h4         1 A1E       0.148000
     11 H4          39.5870   -16.3330    12.1810 h4         1 A1E       0.161000
     12 H5          35.3480   -14.3490    14.1010 hc         1 A1E       0.057033
     13 H6          35.4640   -16.0370    14.6340 hc         1 A1E       0.057033
     14 H7          36.4030   -14.8060    15.4530 hc         1 A1E       0.057033
     15 C2          37.1640   -15.3440    13.5190 c          1 A1E       0.614700
@<TRIPOS>BOND
     1     1     3 1   
     2     1     4 1   
     3     1     8 1   
     4     2     3 2   
     5     2     6 1   
     6     2     9 1   
     7     3    10 1   
     8     4     6 2   
     9     4    11 1   
    10     5    12 1   
    11     5    13 1   
    12     5    14 1   
    13     5    15 1   
    14     6    15 1   
    15     7    15 2   
@<TRIPOS>SUBSTRUCTURE
     1 A1E         1 TEMP              0 ****  ****    0 ROOT
