@<TRIPOS>MOLECULE
A1E
   29    31     1     0     0
SMALL
abcg2


@<TRIPOS>ATOM
      1 C10         -6.5480    -6.8700    14.6380 ca         1 A1E       0.466000
      2 C13         -5.2160    -9.3020    13.9680 ca         1 A1E      -0.255000
      3 C17          0.1960   -12.4740    13.1340 cc         1 A1E       0.548500
      4 C01         -1.2430   -11.2650    12.0680 ca         1 A1E       0.030100
      5 C02         -1.0670   -10.7810    13.3660 ca         1 A1E       0.060400
      6 C03         -1.7780    -9.6680    13.8020 ca         1 A1E      -0.039000
      7 C04         -2.6420    -9.0990    12.8820 ca         1 A1E       0.066100
      8 C05         -2.8100    -9.5840    11.5820 ca         1 A1E      -0.095000
      9 C06         -2.1000   -10.6980    11.1450 ca         1 A1E      -0.077000
     10 C08         -4.5870    -8.0610    13.7620 ca         1 A1E       0.247100
     11 C09         -5.2420    -6.8840    14.0900 ca         1 A1E      -0.056000
     12 C11         -7.1570    -8.1480    14.8320 ca         1 A1E      -0.319200
     13 C12         -6.4790    -9.3270    14.4950 ca         1 A1E       0.045000
     14 N15         -7.1330    -5.7050    14.9450 nv         1 A1E      -1.086000
     15 N18         -0.1300   -11.5920    14.0150 nd         1 A1E      -0.560100
     16 N19         -8.4720    -8.2840    15.3700 no         1 A1E       0.695200
     17 O07         -3.3390    -7.9470    13.2510 os         1 A1E      -0.230200
     18 O16         -0.4240   -12.3590    11.9240 os         1 A1E      -0.286700
     19 O20         -8.9490    -9.4120    15.5100 o          1 A1E      -0.427000
     20 O21         -9.1130    -7.2680    15.6870 o          1 A1E      -0.427000
     21 CL14        -4.4340    -5.3650    13.8220 cl         1 A1E      -0.179000
     22 H1          -4.7070   -10.2180    13.7140 ha         1 A1E       0.142000
     23 H3          -1.6750    -9.2640    14.8000 ha         1 A1E       0.154000
     24 H4          -3.5030    -9.0810    10.9210 ha         1 A1E       0.140000
     25 H5          -2.2140   -11.0890    10.1430 ha         1 A1E       0.144000
     26 H6          -6.9770   -10.2690    14.6600 ha         1 A1E       0.153000
     27 H7          -8.0710    -5.7050    15.3080 hn         1 A1E       0.525500
     28 H8          -6.6570    -4.8390    14.7550 hn         1 A1E       0.525500
     29 H2           0.8950   -13.2890    13.2360 h5         1 A1E       0.094800
@<TRIPOS>BOND
     1     1    11 ar  
     2     1    12 ar  
     3     1    14 1   
     4     2    10 ar  
     5     2    13 ar  
     6     2    22 1   
     7     3    15 2   
     8     3    18 1   
     9     3    29 1   
    10     4     5 ar  
    11     4     9 ar  
    12     4    18 1   
    13     5     6 ar  
    14     5    15 1   
    15     6     7 ar  
    16     6    23 1   
    17     7     8 ar  
    18     7    17 1   
    19     8     9 ar  
    20     8    24 1   
    21     9    25 1   
    22    10    11 ar  
    23    10    17 1   
    24    11    21 1   
    25    12    13 ar  
    26    12    16 1   
    27    13    26 1   
    28    14    27 1   
    29    14    28 1   
    30    16    19 1   
    31    16    20 1   
@<TRIPOS>SUBSTRUCTURE
     1 A1E         1 TEMP              0 ****  ****    0 ROOT
