@<TRIPOS>MOLECULE
A1E
   20    21     1     0     0
SMALL
abcg2


@<TRIPOS>ATOM
      1 N1         -39.7170    18.0510    15.4400 na         1 A1E      -0.225700
      2 C4         -37.0010    15.7960    16.5050 ca         1 A1E      -0.096000
      3 C5         -37.9780    16.7530    16.6860 ca         1 A1E      -0.122000
      4 C6         -38.7120    17.1360    15.5640 ca         1 A1E      -0.054200
      5 C7         -40.1280    18.1000    14.1400 cc         1 A1E      -0.168100
      6 C8         -39.4030    17.2180    13.3920 cd         1 A1E      -0.229200
      7 C2         -37.4760    15.6150    14.1220 ca         1 A1E      -0.037300
      8 C3         -36.7580    15.2350    15.2400 ca         1 A1E      -0.128000
      9 C9         -38.4830    16.5830    14.2840 ca         1 A1E      -0.076800
     10 O1         -38.3430    14.3670    12.2970 oh         1 A1E      -0.650000
     11 H1         -40.0960    18.6080    16.1880 hn         1 A1E       0.347000
     12 H2         -36.4100    15.4700    17.3510 ha         1 A1E       0.110000
     13 H3         -38.1650    17.1900    17.6590 ha         1 A1E       0.111000
     14 H4         -40.9220    18.7670    13.8420 h4         1 A1E       0.209000
     15 H5         -39.5200    17.0410    12.3350 ha         1 A1E       0.207000
     16 H6         -36.3330    14.3460    12.8500 h1         1 A1E       0.023200
     17 H7         -36.8890    15.8350    12.0890 h1         1 A1E       0.023200
     18 H8         -35.9820    14.4850    15.1400 ha         1 A1E       0.108000
     19 H9         -38.1950    14.1400    11.3740 ho         1 A1E       0.437000
     20 C1         -37.1880    15.0290    12.7720 c3         1 A1E       0.210900
@<TRIPOS>BOND
     1     1     4 1   
     2     1     5 1   
     3     1    11 1   
     4     2     3 ar  
     5     2     8 ar  
     6     2    12 1   
     7     3     4 ar  
     8     3    13 1   
     9     4     9 ar  
    10     5     6 2   
    11     5    14 1   
    12     6     9 1   
    13     6    15 1   
    14     7     8 ar  
    15     7     9 ar  
    16     7    20 1   
    17     8    18 1   
    18    10    19 1   
    19    10    20 1   
    20    16    20 1   
    21    17    20 1   
@<TRIPOS>SUBSTRUCTURE
     1 A1E         1 TEMP              0 ****  ****    0 ROOT
