@<TRIPOS>MOLECULE
A1E
    9     9     1     0     0
SMALL
abcg2


@<TRIPOS>ATOM
      1 N1          39.2740   -17.0430    13.2580 nv         1 A1E      -1.037900
      2 N3          37.0240   -14.4110    12.7660 nc         1 A1E      -0.283000
      3 C1          38.3270   -16.0900    13.3650 cd         1 A1E       0.665300
      4 C2          36.5190   -14.6570    13.9200 cd         1 A1E       0.381300
      5 N2          38.0570   -15.2170    12.4380 nc         1 A1E      -0.417000
      6 S1          37.2880   -15.9640    14.7530 ss         1 A1E      -0.340800
      7 H1          39.9500   -16.9140    12.5220 hn         1 A1E       0.485500
      8 H2          39.6420   -17.4630    14.0950 hn         1 A1E       0.485500
      9 H3          35.6910   -14.1130    14.3490 h5         1 A1E       0.061100
@<TRIPOS>BOND
     1     1     3 1   
     2     1     7 1   
     3     1     8 1   
     4     2     4 2   
     5     2     5 1   
     6     3     5 2   
     7     3     6 1   
     8     4     6 1   
     9     4     9 1   
@<TRIPOS>SUBSTRUCTURE
     1 A1E         1 TEMP              0 ****  ****    0 ROOT
