@<TRIPOS>MOLECULE
A1E
   42    43     1     0     0
SMALL
abcg2


@<TRIPOS>ATOM
      1 C11          0.5430     2.3730    -0.2830 c3         1 A1E       0.133700
      2 C12          1.4080     1.8030     0.8540 c3         1 A1E      -0.057100
      3 C13          0.0240     3.7660     0.0510 c3         1 A1E      -0.095100
      4 C14          2.1500     0.5670     0.4400 ca         1 A1E      -0.048300
      5 C16         -2.4840     0.0430    -0.4640 cc         1 A1E      -0.245600
      6 C17          3.3190     0.6410    -0.3220 ca         1 A1E       0.133500
      7 C18          1.7140    -0.7250     0.7390 ca         1 A1E       0.133500
      8 C19         -3.8500    -0.0550    -0.1160 cc         1 A1E       0.207300
      9 C20         -2.2600    -1.0950    -1.2180 cd         1 A1E      -0.108000
     10 C21          4.0110    -0.4710    -0.7690 ca         1 A1E      -0.100000
     11 C22          2.3730    -1.8670     0.3110 ca         1 A1E      -0.100000
     12 C23         -4.6670     0.8810     0.7090 c3         1 A1E       0.166000
     13 C24          3.5200    -1.7230    -0.4470 ca         1 A1E       0.128000
     14 C25         -0.4690     1.1220    -2.9870 c3         1 A1E       0.113900
     15 F04         -5.9860     0.7210     0.4190 f          1 A1E      -0.113000
     16 F05         -4.5300     0.5830     2.0340 f          1 A1E      -0.113000
     17 N08         -0.4920     1.4310    -0.7010 n          1 A1E      -0.284300
     18 N09         -3.4210    -1.7560    -1.2740 na         1 A1E       0.140800
     19 N10         -4.3980    -1.1370    -0.6240 nd         1 A1E      -0.483800
     20 O06         -0.1200     0.5870    -1.7130 os         1 A1E      -0.237100
     21 CL01         3.9600     2.1910    -0.7540 cl         1 A1E      -0.183000
     22 CL02         0.2860    -0.9660     1.6860 cl         1 A1E      -0.183000
     23 CL03         4.3540    -3.1280    -1.0020 cl         1 A1E      -0.184000
     24 H1           1.1740     2.4830    -1.1670 h1         1 A1E       0.060700
     25 H2           2.1200     2.5740     1.1550 hc         1 A1E       0.078700
     26 H3           0.7840     1.6100     1.7260 hc         1 A1E       0.078700
     27 H4          -0.6750     4.1120    -0.7100 hc         1 A1E       0.052033
     28 H5          -0.4640     3.8130     1.0200 hc         1 A1E       0.052033
     29 H6           0.8720     4.4520     0.0610 hc         1 A1E       0.052033
     30 H7          -1.3760    -1.4890    -1.6890 h4         1 A1E       0.169000
     31 H8           4.9110    -0.3600    -1.3580 ha         1 A1E       0.146500
     32 H9           1.9950    -2.8470     0.5650 ha         1 A1E       0.146500
     33 H10         -4.4050     1.9280     0.5630 h2         1 A1E       0.080700
     34 H11         -0.1330     0.3910    -3.7190 h1         1 A1E       0.044700
     35 H12         -1.5480     1.2590    -3.0810 h1         1 A1E       0.044700
     36 H13          0.0360     2.0720    -3.1760 h1         1 A1E       0.044700
     37 H14         -4.0090    -3.7580    -1.2420 h1         1 A1E       0.062367
     38 H15         -4.4600    -2.8600    -2.7050 h1         1 A1E       0.062367
     39 H16         -2.7750    -3.3380    -2.4410 h1         1 A1E       0.062367
     40 C15         -1.6030     1.1250     0.0080 c          1 A1E       0.663700
     41 C26         -3.6860    -3.0030    -1.9550 c3         1 A1E       0.068900
     42 O07         -1.9080     1.7670     1.0050 o          1 A1E      -0.594100
@<TRIPOS>BOND
     1     1     2 1   
     2     1     3 1   
     3     1    17 1   
     4     1    24 1   
     5     2     4 1   
     6     2    25 1   
     7     2    26 1   
     8     3    27 1   
     9     3    28 1   
    10     3    29 1   
    11     4     6 ar  
    12     4     7 ar  
    13     5     8 1   
    14     5     9 2   
    15     5    40 1   
    16     6    10 ar  
    17     6    21 1   
    18     7    11 ar  
    19     7    22 1   
    20     8    12 1   
    21     8    19 2   
    22     9    18 1   
    23     9    30 1   
    24    10    13 ar  
    25    10    31 1   
    26    11    13 ar  
    27    11    32 1   
    28    12    15 1   
    29    12    16 1   
    30    12    33 1   
    31    13    23 1   
    32    14    20 1   
    33    14    34 1   
    34    14    35 1   
    35    14    36 1   
    36    17    20 1   
    37    17    40 1   
    38    18    19 1   
    39    18    41 1   
    40    37    41 1   
    41    38    41 1   
    42    39    41 1   
    43    40    42 2   
@<TRIPOS>SUBSTRUCTURE
     1 A1E         1 TEMP              0 ****  ****    0 ROOT
