@<TRIPOS>MOLECULE
A1E
   15    16     1     0     0
SMALL
abcg2


@<TRIPOS>ATOM
      1 N1           6.4910   -18.4710    17.8440 ns         1 A1E      -0.431200
      2 C1           6.5810   -17.2150    18.3660 c          1 A1E       0.588600
      3 C2           7.5610   -17.0450    16.1950 ca         1 A1E      -0.098000
      4 C3           8.1850   -16.4090    15.1280 ca         1 A1E      -0.152000
      5 C4           8.4520   -15.0670    15.2890 ca         1 A1E       0.213000
      6 C5           8.1270   -14.3490    16.4380 ca         1 A1E      -0.176000
      7 C6           7.5080   -15.0070    17.4800 ca         1 A1E       0.007000
      8 C7           7.2250   -16.3630    17.3600 ca         1 A1E      -0.201600
      9 O1           6.1890   -16.8890    19.4720 o          1 A1E      -0.525000
     10 F1           9.0570   -14.4190    14.2890 f          1 A1E      -0.170000
     11 S1           7.1080   -18.7180    16.2750 ss         1 A1E       0.169700
     12 H1           6.0900   -19.2500    18.3490 hn         1 A1E       0.350500
     13 H2           8.4520   -16.9280    14.2170 ha         1 A1E       0.144000
     14 H3           8.3610   -13.2950    16.5010 ha         1 A1E       0.140000
     15 H4           7.2430   -14.4760    18.3860 ha         1 A1E       0.141000
@<TRIPOS>BOND
     1     1     2 1   
     2     1    11 1   
     3     1    12 1   
     4     2     8 1   
     5     2     9 2   
     6     3     4 ar  
     7     3     8 ar  
     8     3    11 1   
     9     4     5 ar  
    10     4    13 1   
    11     5     6 ar  
    12     5    10 1   
    13     6     7 ar  
    14     6    14 1   
    15     7     8 ar  
    16     7    15 1   
@<TRIPOS>SUBSTRUCTURE
     1 A1E         1 TEMP              0 ****  ****    0 ROOT
