@<TRIPOS>MOLECULE
A1E
   69    72     1     0     0
SMALL
abcg2


@<TRIPOS>ATOM
      1 C10        -92.2340   -60.6910   166.0100 c3         1 A1E      -0.060400
      2 C17        -90.8330   -59.6290   169.5550 c6         1 A1E       0.283100
      3 C20        -89.7570   -56.0130   169.1860 c3         1 A1E       0.137300
      4 C21        -90.7550   -55.3560   170.1070 ca         1 A1E      -0.094300
      5 C22        -92.0460   -54.9600   169.6490 ca         1 A1E      -0.016000
      6 C24        -93.7150   -54.7090   167.9080 ca         1 A1E      -0.107000
      7 C26        -94.2440   -53.9920   170.1380 ca         1 A1E      -0.100000
      8 C28        -92.5620   -54.1960   171.9220 ca         1 A1E      -0.087000
      9 O01        -92.9240   -60.3820   171.1230 o          1 A1E      -0.631100
     10 C02        -91.8890   -61.0320   171.2080 c          1 A1E       0.663100
     11 N03        -90.7250   -60.5880   170.6120 n          1 A1E      -0.425800
     12 C04        -89.4430   -61.2580   170.6630 c6         1 A1E       0.096000
     13 C05        -89.2490   -62.0570   169.3930 c6         1 A1E      -0.186400
     14 C06        -89.4820   -61.2210   168.1600 c          1 A1E       0.592000
     15 N07        -90.2180   -60.0950   168.3190 n          1 A1E      -0.420800
     16 C08        -90.4730   -59.2130   167.2020 c6         1 A1E       0.032700
     17 C09        -91.8970   -59.3280   166.6320 c3         1 A1E      -0.077400
     18 C11        -93.1970   -61.5510   166.8010 c3         1 A1E       0.166800
     19 C18        -90.1960   -58.3050   169.9430 c6         1 A1E       0.079000
     20 N19        -90.1290   -57.3780   168.8280 n          1 A1E      -0.396800
     21 C23        -92.4640   -55.1020   168.3040 ca         1 A1E      -0.100000
     22 C25        -94.6200   -54.1540   168.8340 ca         1 A1E      -0.105000
     23 C27        -92.9570   -54.3820   170.5760 ca         1 A1E      -0.040000
     24 C29        -91.3140   -54.5620   172.3330 ca         1 A1E      -0.113000
     25 C30        -90.4140   -55.1460   171.4190 ca         1 A1E      -0.102000
     26 C31        -90.1820   -57.7520   167.5340 c          1 A1E       0.557000
     27 O32        -90.0470   -56.9670   166.6050 o          1 A1E      -0.568000
     28 N34        -91.8140   -62.1910   171.9000 ns         1 A1E      -0.526900
     29 C35        -92.9100   -62.7010   172.6930 c3         1 A1E       0.111000
     30 C36        -92.7490   -62.4470   174.1880 c3         1 A1E      -0.096400
     31 C37        -92.6530   -60.9610   174.5120 c3         1 A1E      -0.148400
     32 C38        -92.6620   -60.6740   175.9870 c3         1 A1E       0.297000
     33 F40        -91.6820   -61.3160   176.6440 f          1 A1E      -0.119333
     34 F41        -92.5000   -59.3650   176.2430 f          1 A1E      -0.119333
     35 F42        -93.8150   -61.0380   176.5710 f          1 A1E      -0.119333
     36 N51        -92.5880   -61.9920   168.0660 n2         1 A1E      -0.441200
     37 N52        -93.2780   -62.7060   168.7650 n1         1 A1E       0.231000
     38 N53        -93.8440   -63.3750   169.4700 n1         1 A1E      -0.093000
     39 H1         -91.3280   -61.2580   165.7910 hc         1 A1E       0.060200
     40 H2         -92.7150   -60.5210   165.0440 hc         1 A1E       0.060200
     41 H3         -91.8930   -59.4610   169.3630 h2         1 A1E       0.106700
     42 H4         -88.7840   -56.0440   169.6860 h1         1 A1E       0.066700
     43 H5         -89.6270   -55.4420   168.2700 h1         1 A1E       0.066700
     44 H6         -94.0110   -54.8230   166.8730 ha         1 A1E       0.114000
     45 H7         -94.9270   -53.5570   170.8580 ha         1 A1E       0.112000
     46 H8         -93.2670   -53.7550   172.6180 ha         1 A1E       0.115000
     47 H9         -89.3500   -61.8730   171.5540 h1         1 A1E       0.057700
     48 H10        -88.6580   -60.5050   170.7590 h1         1 A1E       0.057700
     49 H11        -89.9450   -62.9000   169.3640 hc         1 A1E       0.080700
     50 H12        -88.2420   -62.4720   169.3350 hc         1 A1E       0.080700
     51 H13        -89.7690   -59.4750   166.4110 h1         1 A1E       0.112700
     52 H14        -91.9900   -58.5570   165.8670 hc         1 A1E       0.057700
     53 H15        -92.6330   -59.0700   167.3990 hc         1 A1E       0.057700
     54 H16        -94.1130   -60.9890   167.0070 h1         1 A1E       0.040200
     55 H17        -93.4770   -62.4240   166.2030 h1         1 A1E       0.040200
     56 H18        -89.1910   -58.4560   170.3500 h1         1 A1E       0.058200
     57 H19        -90.8060   -57.8640   170.7330 h1         1 A1E       0.058200
     58 H20        -91.7880   -55.5080   167.5650 ha         1 A1E       0.131000
     59 H21        -95.6070   -53.8510   168.5090 ha         1 A1E       0.113000
     60 H22        -91.0090   -54.4160   173.3610 ha         1 A1E       0.115000
     61 H23        -89.4320   -55.4430   171.7670 ha         1 A1E       0.108000
     62 H24        -90.9860   -62.7590   171.8690 hn         1 A1E       0.315500
     63 H25        -93.8380   -62.2610   172.3350 h1         1 A1E       0.067700
     64 H26        -92.9820   -63.7760   172.5220 h1         1 A1E       0.067700
     65 H27        -93.6080   -62.8960   174.6910 hc         1 A1E       0.058700
     66 H28        -91.8610   -62.9690   174.5510 hc         1 A1E       0.058700
     67 H29        -91.7360   -60.5390   174.0950 hc         1 A1E       0.087200
     68 H30        -93.4880   -60.4170   174.0640 hc         1 A1E       0.087200
     69 O33        -89.0200   -61.5550   167.0780 o          1 A1E      -0.562000
@<TRIPOS>BOND
     1     1    17 1   
     2     1    18 1   
     3     1    39 1   
     4     1    40 1   
     5     2    11 1   
     6     2    15 1   
     7     2    19 1   
     8     2    41 1   
     9     3     4 1   
    10     3    20 1   
    11     3    42 1   
    12     3    43 1   
    13     4     5 ar  
    14     4    25 ar  
    15     5    21 ar  
    16     5    23 ar  
    17     6    21 ar  
    18     6    22 ar  
    19     6    44 1   
    20     7    22 ar  
    21     7    23 ar  
    22     7    45 1   
    23     8    23 ar  
    24     8    24 ar  
    25     8    46 1   
    26     9    10 2   
    27    10    11 1   
    28    10    28 1   
    29    11    12 1   
    30    12    13 1   
    31    12    47 1   
    32    12    48 1   
    33    13    14 1   
    34    13    49 1   
    35    13    50 1   
    36    14    15 1   
    37    14    69 2   
    38    15    16 1   
    39    16    17 1   
    40    16    26 1   
    41    16    51 1   
    42    17    52 1   
    43    17    53 1   
    44    18    36 1   
    45    18    54 1   
    46    18    55 1   
    47    19    20 1   
    48    19    56 1   
    49    19    57 1   
    50    20    26 1   
    51    21    58 1   
    52    22    59 1   
    53    24    25 ar  
    54    24    60 1   
    55    25    61 1   
    56    26    27 2   
    57    28    29 1   
    58    28    62 1   
    59    29    30 1   
    60    29    63 1   
    61    29    64 1   
    62    30    31 1   
    63    30    65 1   
    64    30    66 1   
    65    31    32 1   
    66    31    67 1   
    67    31    68 1   
    68    32    33 1   
    69    32    34 1   
    70    32    35 1   
    71    36    37 1   
    72    37    38 3   
@<TRIPOS>SUBSTRUCTURE
     1 A1E         1 TEMP              0 ****  ****    0 ROOT
