@<TRIPOS>MOLECULE
A1E
   48    52     1     0     0
SMALL
abcg2


@<TRIPOS>ATOM
      1 C10         18.5130   -66.5890   -42.6600 cc         1 A1E      -0.208300
      2 C13         15.6160   -67.4350   -41.9970 ca         1 A1E      -0.086500
      3 C15         13.4620   -66.3620   -41.9350 ca         1 A1E      -0.100000
      4 C17         15.4500   -65.1090   -41.4240 ca         1 A1E      -0.086500
      5 C20         17.1820   -68.2630   -38.5670 ca         1 A1E      -0.074500
      6 C21         16.6860   -68.2280   -37.2760 ca         1 A1E      -0.165000
      7 C22         16.6980   -67.0370   -36.5510 ca         1 A1E       0.133100
      8 C24         17.2230   -65.8890   -37.1380 ca         1 A1E      -0.165000
      9 C26         19.1460   -68.0360   -40.9330 c          1 A1E       0.511500
     10 C28         18.1580   -65.5800   -46.3000 ca         1 A1E      -0.086000
     11 C02         17.0900   -63.4350   -46.6560 ca         1 A1E      -0.059300
     12 C03         17.1160   -63.2310   -45.2770 ca         1 A1E      -0.109000
     13 C04         17.6550   -64.1770   -44.4230 ca         1 A1E      -0.086000
     14 C05         18.1850   -65.3680   -44.9220 ca         1 A1E      -0.032000
     15 C06         18.7380   -66.3500   -43.9980 cd         1 A1E      -0.048000
     16 C09         19.3210   -67.6680   -42.3450 cc         1 A1E       0.176500
     17 C11         17.7270   -66.1680   -41.4670 c5         1 A1E       0.260300
     18 C12         16.2290   -66.2370   -41.6380 ca         1 A1E      -0.100300
     19 C14         14.2400   -67.4970   -42.1440 ca         1 A1E      -0.112500
     20 C16         14.0690   -65.1680   -41.5760 ca         1 A1E      -0.112500
     21 C19         17.7210   -67.1210   -39.1510 ca         1 A1E      -0.063000
     22 C25         17.7390   -65.9380   -38.4230 ca         1 A1E      -0.074500
     23 C29         17.6250   -64.6230   -47.1490 ca         1 A1E      -0.109000
     24 N07         19.6540   -67.2940   -44.3490 na         1 A1E       0.001800
     25 N08         20.0260   -68.1060   -43.3690 nd         1 A1E      -0.429800
     26 N18         18.2100   -67.1430   -40.4730 n          1 A1E      -0.248400
     27 O27         19.6890   -68.9100   -40.2890 o          1 A1E      -0.503000
     28 H131        16.2150   -68.3230   -42.1600 ha         1 A1E       0.114500
     29 H151        12.3870   -66.4130   -42.0500 ha         1 A1E       0.113000
     30 H171        15.9230   -64.1780   -41.1360 ha         1 A1E       0.114500
     31 H201        17.1360   -69.1890   -39.1250 ha         1 A1E       0.121500
     32 H211        16.2720   -69.1240   -36.8300 ha         1 A1E       0.121500
     33 H241        17.2390   -64.9540   -36.5900 ha         1 A1E       0.121500
     34 H281        18.5420   -66.4990   -46.7260 ha         1 A1E       0.113500
     35 H012        15.3970   -62.5150   -47.5990 hc         1 A1E       0.046367
     36 H011        16.7060   -61.4010   -47.2440 hc         1 A1E       0.046367
     37 H013        16.8460   -62.5300   -48.5940 hc         1 A1E       0.046367
     38 H031        16.7170   -62.3130   -44.8640 ha         1 A1E       0.116000
     39 H041        17.6810   -63.9730   -43.3600 ha         1 A1E       0.113500
     40 H111        18.0020   -65.1560   -41.1490 h1         1 A1E       0.066700
     41 H141        13.7700   -68.4310   -42.4230 ha         1 A1E       0.114000
     42 H161        13.4700   -64.2820   -41.4080 ha         1 A1E       0.114000
     43 H251        18.1560   -65.0370   -38.8540 ha         1 A1E       0.121500
     44 H291        17.6190   -64.8100   -48.2160 ha         1 A1E       0.116000
     45 H071        20.0840   -67.4010   -45.2560 hn         1 A1E       0.376000
     46 H231        16.2550   -66.1830   -34.8970 ho         1 A1E       0.464000
     47 O23         16.1900   -67.0550   -35.3040 oh         1 A1E      -0.533100
     48 C01         16.4840   -62.4160   -47.5730 c3         1 A1E      -0.050800
@<TRIPOS>BOND
     1     1    15 2   
     2     1    16 1   
     3     1    17 1   
     4     2    18 ar  
     5     2    19 ar  
     6     2    28 1   
     7     3    19 ar  
     8     3    20 ar  
     9     3    29 1   
    10     4    18 ar  
    11     4    20 ar  
    12     4    30 1   
    13     5     6 ar  
    14     5    21 ar  
    15     5    31 1   
    16     6     7 ar  
    17     6    32 1   
    18     7     8 ar  
    19     7    47 1   
    20     8    22 ar  
    21     8    33 1   
    22     9    16 1   
    23     9    26 1   
    24     9    27 2   
    25    10    14 ar  
    26    10    23 ar  
    27    10    34 1   
    28    11    12 ar  
    29    11    23 ar  
    30    11    48 1   
    31    12    13 ar  
    32    12    38 1   
    33    13    14 ar  
    34    13    39 1   
    35    14    15 1   
    36    15    24 1   
    37    16    25 2   
    38    17    18 1   
    39    17    26 1   
    40    17    40 1   
    41    19    41 1   
    42    20    42 1   
    43    21    22 ar  
    44    21    26 1   
    45    22    43 1   
    46    23    44 1   
    47    24    25 1   
    48    24    45 1   
    49    35    48 1   
    50    36    48 1   
    51    37    48 1   
    52    46    47 1   
@<TRIPOS>SUBSTRUCTURE
     1 A1E         1 TEMP              0 ****  ****    0 ROOT
