@<TRIPOS>MOLECULE
A1E
   29    29     1     0     0
SMALL
abcg2


@<TRIPOS>ATOM
      1 N1          36.7750   -17.6970    25.6330 ns         1 A1E      -0.513900
      2 C4          36.8250   -16.5620    26.3560 c          1 A1E       0.597100
      3 C5          37.9550   -18.3090    25.0730 c3         1 A1E       0.158300
      4 C6          38.5330   -17.5580    23.8970 ca         1 A1E      -0.114300
      5 C7          37.7110   -17.0950    22.8740 ca         1 A1E      -0.068500
      6 C8          38.2380   -16.4320    21.7760 ca         1 A1E      -0.152000
      7 C10         40.4530   -16.6870    22.7050 ca         1 A1E      -0.152000
      8 C1          34.1070   -14.0650    27.5510 c3         1 A1E       0.160600
      9 C11         39.9020   -17.3440    23.7990 ca         1 A1E      -0.068500
     10 C2          35.3710   -14.5640    26.8820 c3         1 A1E      -0.067400
     11 C3          35.4980   -16.0830    26.9030 c3         1 A1E      -0.153400
     12 C9          39.6050   -16.2400    21.7120 ca         1 A1E       0.173000
     13 F1          40.1240   -15.5960    20.6530 f          1 A1E      -0.181000
     14 O1          32.9810   -14.5710    26.8660 oh         1 A1E      -0.667000
     15 O2          37.8760   -15.9780    26.5750 o          1 A1E      -0.598100
     16 H1          35.8850   -18.1340    25.4650 hn         1 A1E       0.315500
     17 H2          37.6720   -19.3150    24.7610 h1         1 A1E       0.054700
     18 H3          38.7190   -18.4270    25.8440 h1         1 A1E       0.054700
     19 H4          36.6390   -17.2460    22.9290 ha         1 A1E       0.116000
     20 H5          37.5960   -16.0730    20.9820 ha         1 A1E       0.131000
     21 H6          41.5200   -16.5200    22.6360 ha         1 A1E       0.131000
     22 H7          34.1150   -12.9670    27.5500 h1         1 A1E       0.019700
     23 H8          34.1100   -14.3810    28.6030 h1         1 A1E       0.019700
     24 H9          40.5580   -17.6900    24.5880 ha         1 A1E       0.116000
     25 H10         36.2190   -14.1160    27.4030 hc         1 A1E       0.062700
     26 H11         35.4110   -14.2000    25.8520 hc         1 A1E       0.062700
     27 H12         34.6690   -16.5460    26.3660 hc         1 A1E       0.061200
     28 H13         35.4270   -16.4380    27.9380 hc         1 A1E       0.061200
     29 H14         32.1910   -14.2920    27.3370 ho         1 A1E       0.442000
@<TRIPOS>BOND
     1     1     2 1   
     2     1     3 1   
     3     1    16 1   
     4     2    11 1   
     5     2    15 2   
     6     3     4 1   
     7     3    17 1   
     8     3    18 1   
     9     4     5 ar  
    10     4     9 ar  
    11     5     6 ar  
    12     5    19 1   
    13     6    12 ar  
    14     6    20 1   
    15     7     9 ar  
    16     7    12 ar  
    17     7    21 1   
    18     8    10 1   
    19     8    14 1   
    20     8    22 1   
    21     8    23 1   
    22     9    24 1   
    23    10    11 1   
    24    10    25 1   
    25    10    26 1   
    26    11    27 1   
    27    11    28 1   
    28    12    13 1   
    29    14    29 1   
@<TRIPOS>SUBSTRUCTURE
     1 A1E         1 TEMP              0 ****  ****    0 ROOT
