@<TRIPOS>MOLECULE
A1E
   14    14     1     0     0
SMALL
abcg2


@<TRIPOS>ATOM
      1 C4         -33.2110    25.5090    -1.1790 cc         1 A1E      -0.142000
      2 C5         -33.4350    26.9100    -0.9730 cc         1 A1E      -0.193600
      3 C6         -32.5140    28.0270    -1.3730 c          1 A1E       0.734600
      4 C1         -35.4600    28.1450     0.1350 c3         1 A1E      -0.095400
      5 C2         -34.6450    27.0030    -0.3520 cd         1 A1E       0.128300
      6 C3         -34.2860    24.8690    -0.6740 cd         1 A1E       0.043900
      7 O1         -35.1640    25.7680    -0.1710 os         1 A1E      -0.286000
      8 O2         -31.4500    27.6880    -1.9310 o          1 A1E      -0.730500
      9 O3         -32.8910    29.1880    -1.1140 o          1 A1E      -0.730500
     10 H1         -32.3530    25.0500    -1.6440 ha         1 A1E       0.136000
     11 H2         -36.3600    27.7920     0.6370 hc         1 A1E       0.039033
     12 H3         -34.8980    28.7620     0.8350 hc         1 A1E       0.039033
     13 H4         -35.7650    28.7950    -0.6850 hc         1 A1E       0.039033
     14 H5         -34.5650    23.8300    -0.6010 h4         1 A1E       0.018100
@<TRIPOS>BOND
     1     1     2 1   
     2     1     6 2   
     3     1    10 1   
     4     2     3 1   
     5     2     5 2   
     6     3     8 1   
     7     3     9 1   
     8     4     5 1   
     9     4    11 1   
    10     4    12 1   
    11     4    13 1   
    12     5     7 1   
    13     6     7 1   
    14     6    14 1   
@<TRIPOS>SUBSTRUCTURE
     1 A1E         1 TEMP              0 ****  ****    0 ROOT
