@<TRIPOS>MOLECULE
A1E
   84    83     1     0     0
SMALL
abcg2


@<TRIPOS>ATOM
      1 C15        122.4910   108.1260   105.3360 c3         1 A1E      -0.142400
      2 C17        121.3480   107.5210   107.4980 c3         1 A1E      -0.077400
      3 C20        120.2220   106.1150   110.9730 c3         1 A1E      -0.071400
      4 C21        121.1320   106.7750   112.0010 c3         1 A1E      -0.078400
      5 C22        121.0690   106.1170   113.3740 c3         1 A1E      -0.075400
      6 C01        124.1250   109.4490   111.3790 c3         1 A1E      -0.089100
      7 C02        124.3330   110.1080   110.0240 c3         1 A1E      -0.078400
      8 C03        123.0830   110.8050   109.5020 c3         1 A1E      -0.075400
      9 C04        123.3130   111.5360   108.1860 c3         1 A1E      -0.082400
     10 C05        122.0530   112.2000   107.6420 c3         1 A1E      -0.070400
     11 C06        122.2790   113.0220   106.3760 c3         1 A1E      -0.073400
     12 C07        122.6660   112.1720   105.1720 c3         1 A1E      -0.073400
     13 C08        122.9120   113.0170   103.9270 c3         1 A1E      -0.136400
     14 C09        123.1930   112.2360   102.6720 c          1 A1E       0.602100
     15 C11        124.0980   110.2190   101.8320 c3         1 A1E       0.141600
     16 C12        124.6220   108.9310   102.4300 c3         1 A1E       0.154300
     17 O13        123.6070   108.4140   103.2970 os         1 A1E      -0.424100
     18 C14        123.7690   108.4700   104.6210 c          1 A1E       0.603100
     19 C16        122.6810   107.7070   106.7860 c3         1 A1E      -0.068400
     20 C18        121.4920   106.9530   108.9040 c3         1 A1E      -0.076400
     21 C19        120.1570   106.8410   109.6320 c3         1 A1E      -0.073400
     22 C23        121.9890   106.7850   114.3870 c3         1 A1E      -0.088100
     23 O24        124.8010   108.7770   105.1610 o          1 A1E      -0.510000
     24 C25        124.9540   107.9090   101.3620 c3         1 A1E       0.228600
     25 O26        123.8300   107.6300   100.5600 os         1 A1E      -0.591400
     26 P27        123.9910   107.4830    98.9230 p5         1 A1E       1.387800
     27 O28        125.3230   106.8840    98.6060 o          1 A1E      -0.808000
     28 O29        124.1010   109.0560    98.4550 os         1 A1E      -0.599400
     29 C30        122.9290   109.8320    98.3090 c3         1 A1E       0.190600
     30 C31        123.2830   111.2380    97.8530 c3         1 A1E       0.175300
     31 O32        124.0700   111.9420    98.7860 oh         1 A1E      -0.661000
     32 C33        124.0200   111.2210    96.5270 c3         1 A1E       0.164600
     33 O34        124.1020   112.5370    96.0310 oh         1 A1E      -0.668000
     34 O35        122.6950   106.9020    98.4600 o          1 A1E      -0.808000
     35 O36        122.8620   112.5860   101.5630 o          1 A1E      -0.506000
     36 H1         121.8560   109.0190   105.2830 hc         1 A1E       0.071700
     37 H2         121.9560   107.3540   104.7790 hc         1 A1E       0.071700
     38 H3         120.8300   108.4860   107.5450 hc         1 A1E       0.036700
     39 H4         120.7030   106.8600   106.9090 hc         1 A1E       0.036700
     40 H5         119.2100   106.0480   111.3850 hc         1 A1E       0.034700
     41 H6         120.5500   105.0820   110.8110 hc         1 A1E       0.034700
     42 H7         122.1680   106.7550   111.6490 hc         1 A1E       0.039700
     43 H8         120.8660   107.8350   112.0960 hc         1 A1E       0.039700
     44 H9         120.0380   106.1410   113.7400 hc         1 A1E       0.034700
     45 H10        121.3320   105.0590   113.2810 hc         1 A1E       0.034700
     46 H11        125.0250   108.9390   111.7230 hc         1 A1E       0.028700
     47 H12        123.8520   110.1860   112.1370 hc         1 A1E       0.028700
     48 H13        123.3230   108.7100   111.3380 hc         1 A1E       0.028700
     49 H14        124.6560   109.3570   109.2950 hc         1 A1E       0.042200
     50 H15        125.1500   110.8330   110.0930 hc         1 A1E       0.042200
     51 H16        122.7220   111.5160   110.2540 hc         1 A1E       0.033200
     52 H17        122.2820   110.0670   109.3760 hc         1 A1E       0.033200
     53 H18        123.7170   110.8280   107.4550 hc         1 A1E       0.046200
     54 H19        124.0880   112.2970   108.3280 hc         1 A1E       0.046200
     55 H20        121.6360   112.8510   108.4170 hc         1 A1E       0.033700
     56 H21        121.2910   111.4350   107.4510 hc         1 A1E       0.033700
     57 H22        123.0590   113.7680   106.5630 hc         1 A1E       0.034700
     58 H23        121.3710   113.5830   106.1400 hc         1 A1E       0.034700
     59 H24        121.8680   111.4490   104.9770 hc         1 A1E       0.056700
     60 H25        123.5600   111.5930   105.4020 hc         1 A1E       0.056700
     61 H26        123.7660   113.6840   104.0940 hc         1 A1E       0.065700
     62 H27        122.0600   113.6670   103.7220 hc         1 A1E       0.065700
     63 H28        124.8350   110.6330   101.1400 h1         1 A1E       0.079700
     64 H29        123.1700   110.0400   101.2900 h1         1 A1E       0.079700
     65 H30        125.5380   109.1260   102.9920 h1         1 A1E       0.066700
     66 H31        123.2530   106.7750   106.8230 hc         1 A1E       0.050700
     67 H32        123.2740   108.4530   107.3200 hc         1 A1E       0.050700
     68 H33        121.9630   105.9650   108.8480 hc         1 A1E       0.039700
     69 H34        122.1790   107.5830   109.4780 hc         1 A1E       0.039700
     70 H35        119.7440   107.8450   109.7810 hc         1 A1E       0.036700
     71 H36        119.4450   106.3180   108.9850 hc         1 A1E       0.036700
     72 H37        121.9340   106.3020   115.3630 hc         1 A1E       0.030033
     73 H38        123.0290   106.7490   114.0580 hc         1 A1E       0.030033
     74 H39        121.7260   107.8360   114.5240 hc         1 A1E       0.030033
     75 H40        125.3080   106.9930   101.8470 h1         1 A1E       0.039700
     76 H41        125.7960   108.3070   100.7870 h1         1 A1E       0.039700
     77 H43        122.3690   109.8950    99.2510 h1         1 A1E       0.024200
     78 H44        122.2510   109.3880    97.5720 h1         1 A1E       0.024200
     79 H45        122.3180   111.7430    97.6900 h1         1 A1E       0.016700
     80 H46        123.5600   112.0720    99.5960 ho         1 A1E       0.452000
     81 H47        123.4680   110.5660    95.8400 h1         1 A1E       0.036700
     82 H48        125.0140   110.7780    96.6620 h1         1 A1E       0.036700
     83 H49        124.6050   112.5170    95.2120 ho         1 A1E       0.426000
     84 O10        123.8620   111.1180   102.9130 os         1 A1E      -0.450100
@<TRIPOS>BOND
     1     1    18 1   
     2     1    19 1   
     3     1    36 1   
     4     1    37 1   
     5     2    19 1   
     6     2    20 1   
     7     2    38 1   
     8     2    39 1   
     9     3     4 1   
    10     3    21 1   
    11     3    40 1   
    12     3    41 1   
    13     4     5 1   
    14     4    42 1   
    15     4    43 1   
    16     5    22 1   
    17     5    44 1   
    18     5    45 1   
    19     6     7 1   
    20     6    46 1   
    21     6    47 1   
    22     6    48 1   
    23     7     8 1   
    24     7    49 1   
    25     7    50 1   
    26     8     9 1   
    27     8    51 1   
    28     8    52 1   
    29     9    10 1   
    30     9    53 1   
    31     9    54 1   
    32    10    11 1   
    33    10    55 1   
    34    10    56 1   
    35    11    12 1   
    36    11    57 1   
    37    11    58 1   
    38    12    13 1   
    39    12    59 1   
    40    12    60 1   
    41    13    14 1   
    42    13    61 1   
    43    13    62 1   
    44    14    35 2   
    45    14    84 1   
    46    15    16 1   
    47    15    63 1   
    48    15    64 1   
    49    15    84 1   
    50    16    17 1   
    51    16    24 1   
    52    16    65 1   
    53    17    18 1   
    54    18    23 2   
    55    19    66 1   
    56    19    67 1   
    57    20    21 1   
    58    20    68 1   
    59    20    69 1   
    60    21    70 1   
    61    21    71 1   
    62    22    72 1   
    63    22    73 1   
    64    22    74 1   
    65    24    25 1   
    66    24    75 1   
    67    24    76 1   
    68    25    26 1   
    69    26    27 1   
    70    26    28 1   
    71    26    34 1   
    72    28    29 1   
    73    29    30 1   
    74    29    77 1   
    75    29    78 1   
    76    30    31 1   
    77    30    32 1   
    78    30    79 1   
    79    31    80 1   
    80    32    33 1   
    81    32    81 1   
    82    32    82 1   
    83    33    83 1   
@<TRIPOS>SUBSTRUCTURE
     1 A1E         1 TEMP              0 ****  ****    0 ROOT
