@<TRIPOS>MOLECULE
A1E
   42    44     1     0     0
SMALL
abcg2


@<TRIPOS>ATOM
      1 N1         -18.4950    18.9240   -26.6160 nc         1 A1E      -0.385300
      2 C7         -22.0650    21.4300   -24.9900 ca         1 A1E      -0.127000
      3 C8         -20.6950    21.5050   -25.2380 ca         1 A1E      -0.039000
      4 C9         -20.0160    20.4620   -26.0060 cd         1 A1E      -0.149000
      5 O1         -19.5170    18.9510   -27.5190 os         1 A1E      -0.082700
      6 C1         -25.4180    24.1680   -19.9330 ca         1 A1E       0.060100
      7 C5         -22.0140    23.5350   -23.7470 ca         1 A1E       0.334000
      8 C6         -22.6880    22.4390   -24.2920 ca         1 A1E       0.116000
      9 C4         -23.5700    24.4030   -22.0420 ca         1 A1E       0.311000
     10 C3         -23.7070    23.2050   -21.3270 ca         1 A1E      -0.165000
     11 C2         -24.6150    23.0870   -20.2950 ca         1 A1E      -0.123000
     12 N          -22.6430    24.5440   -23.0560 nu         1 A1E      -1.003000
     13 C          -27.1270    25.0250   -18.5320 c3         1 A1E       0.155900
     14 C10        -18.7740    19.8200   -25.7160 cd         1 A1E       0.291300
     15 C11        -17.8670    20.0540   -24.5620 c3         1 A1E      -0.133400
     16 C12        -20.4230    19.8600   -27.1570 cc         1 A1E       0.184300
     17 C13        -21.6140    20.0310   -28.0200 c3         1 A1E      -0.135400
     18 C14        -19.9900    22.6020   -24.7500 ca         1 A1E      -0.087000
     19 C15        -20.6390    23.5750   -24.0120 ca         1 A1E       0.076000
     20 C16        -24.3600    25.5050   -21.6670 ca         1 A1E      -0.163600
     21 C17        -24.2390    26.8710   -22.3300 c          1 A1E       0.721600
     22 C18        -25.2750    25.3610   -20.6210 ca         1 A1E      -0.127000
     23 F          -24.0150    22.3730   -24.1250 f          1 A1E      -0.167000
     24 O2         -25.0740    27.7320   -22.0180 o          1 A1E      -0.708000
     25 CL         -19.7230    24.9070   -23.3970 cl         1 A1E      -0.189000
     26 H1         -22.6530    20.5930   -25.3470 ha         1 A1E       0.120000
     27 H2         -23.0740    22.3580   -21.5570 ha         1 A1E       0.099000
     28 H3         -24.6950    22.1510   -19.7550 ha         1 A1E       0.101000
     29 H4         -22.5360    25.5320   -23.3310 hn         1 A1E       0.585000
     30 H5         -27.7390    24.6620   -17.7090 h1         1 A1E       0.029033
     31 H6         -26.5690    25.9020   -18.1900 h1         1 A1E       0.029033
     32 H7         -27.7870    25.3330   -19.3480 h1         1 A1E       0.029033
     33 H8         -17.1480    19.2430   -24.4640 hc         1 A1E       0.056033
     34 H9         -17.3080    20.9830   -24.6820 hc         1 A1E       0.056033
     35 H10        -18.4330    20.1320   -23.6340 hc         1 A1E       0.056033
     36 H11        -21.3450    19.9980   -29.0750 hc         1 A1E       0.062033
     37 H12        -22.3500    19.2450   -27.8380 hc         1 A1E       0.062033
     38 H13        -22.0900    20.9880   -27.8160 hc         1 A1E       0.062033
     39 H14        -18.9310    22.7040   -24.9460 ha         1 A1E       0.120000
     40 H15        -25.8710    26.2270   -20.3660 ha         1 A1E       0.136000
     41 O          -26.2800    23.9640   -18.9050 os         1 A1E      -0.362100
     42 O3         -23.2840    27.0360   -23.1360 o          1 A1E      -0.708000
@<TRIPOS>BOND
     1     1     5 1   
     2     1    14 2   
     3     2     3 ar  
     4     2     8 ar  
     5     2    26 1   
     6     3     4 1   
     7     3    18 ar  
     8     4    14 1   
     9     4    16 2   
    10     5    16 1   
    11     6    11 ar  
    12     6    22 ar  
    13     6    41 1   
    14     7     8 ar  
    15     7    12 1   
    16     7    19 ar  
    17     8    23 1   
    18     9    10 ar  
    19     9    12 1   
    20     9    20 ar  
    21    10    11 ar  
    22    10    27 1   
    23    11    28 1   
    24    12    29 1   
    25    13    30 1   
    26    13    31 1   
    27    13    32 1   
    28    13    41 1   
    29    14    15 1   
    30    15    33 1   
    31    15    34 1   
    32    15    35 1   
    33    16    17 1   
    34    17    36 1   
    35    17    37 1   
    36    17    38 1   
    37    18    19 ar  
    38    18    39 1   
    39    19    25 1   
    40    20    21 1   
    41    20    22 ar  
    42    21    24 1   
    43    21    42 1   
    44    22    40 1   
@<TRIPOS>SUBSTRUCTURE
     1 A1E         1 TEMP              0 ****  ****    0 ROOT
