@<TRIPOS>MOLECULE
A1E
   31    32     1     0     0
SMALL
abcg2


@<TRIPOS>ATOM
      1 N1          40.8130   -16.9230    19.7590 n3         1 A1E      -0.727600
      2 N3          36.5170   -16.8440    25.7990 nv         1 A1E      -1.073000
      3 C4          41.3320   -17.3440    22.0800 c6         1 A1E       0.222300
      4 C5          41.7490   -16.6170    20.8130 c6         1 A1E       0.162800
      5 C6          39.4380   -17.4630    23.6110 ca         1 A1E       0.376000
      6 C7          40.1380   -18.3950    24.4030 ca         1 A1E      -0.229000
      7 C8          39.6260   -18.7790    25.6310 ca         1 A1E      -0.033000
      8 C10         37.7300   -17.3400    25.3580 ca         1 A1E       0.325000
      9 C1          41.2600   -16.5210    18.4480 c3         1 A1E       0.162100
     10 C11         38.2410   -16.9370    24.1220 ca         1 A1E      -0.260000
     11 C2          39.4700   -16.4440    20.0580 c6         1 A1E       0.162800
     12 C3          39.2750   -16.1250    21.5390 c6         1 A1E       0.222300
     13 C9          38.4350   -18.2750    26.1250 ca         1 A1E      -0.227000
     14 N2          39.9310   -17.1000    22.3790 nh         1 A1E      -0.819400
     15 H2          36.3830   -16.8570    26.7970 hn         1 A1E       0.442500
     16 H3          36.2390   -15.9620    25.4000 hn         1 A1E       0.442500
     17 H4          41.5090   -18.4150    21.9370 h1         1 A1E       0.043200
     18 H5          41.9730   -17.0190    22.9070 h1         1 A1E       0.043200
     19 H6          42.7390   -16.9810    20.5300 h1         1 A1E       0.038450
     20 H7          41.8610   -15.5360    20.9990 h1         1 A1E       0.038450
     21 H8          41.0650   -18.8330    24.0630 ha         1 A1E       0.112000
     22 H9          40.1790   -19.5000    26.2220 ha         1 A1E       0.104000
     23 H10         42.2260   -16.9770    18.2230 h1         1 A1E       0.030367
     24 H11         40.5510   -16.8620    17.6920 h1         1 A1E       0.030367
     25 H12         41.3650   -15.4310    18.3370 h1         1 A1E       0.030367
     26 H13         37.6850   -16.1880    23.5740 ha         1 A1E       0.105000
     27 H14         39.2350   -15.5240    19.5030 h1         1 A1E       0.038450
     28 H15         38.7390   -17.1950    19.7430 h1         1 A1E       0.038450
     29 H16         39.6230   -15.1080    21.7580 h1         1 A1E       0.043200
     30 H17         38.2030   -16.1300    21.7240 h1         1 A1E       0.043200
     31 H18         38.0540   -18.5920    27.0880 ha         1 A1E       0.111000
@<TRIPOS>BOND
     1     1     4 1   
     2     1     9 1   
     3     1    11 1   
     4     2     8 1   
     5     2    15 1   
     6     2    16 1   
     7     3     4 1   
     8     3    14 1   
     9     3    17 1   
    10     3    18 1   
    11     4    19 1   
    12     4    20 1   
    13     5     6 ar  
    14     5    10 ar  
    15     5    14 1   
    16     6     7 ar  
    17     6    21 1   
    18     7    13 ar  
    19     7    22 1   
    20     8    10 ar  
    21     8    13 ar  
    22     9    23 1   
    23     9    24 1   
    24     9    25 1   
    25    10    26 1   
    26    11    12 1   
    27    11    27 1   
    28    11    28 1   
    29    12    14 1   
    30    12    29 1   
    31    12    30 1   
    32    13    31 1   
@<TRIPOS>SUBSTRUCTURE
     1 A1E         1 TEMP              0 ****  ****    0 ROOT
