@<TRIPOS>MOLECULE
A1E
   49    52     1     0     0
SMALL
abcg2


@<TRIPOS>ATOM
      1 C18         -2.4070    17.0930   -13.6640 ca         1 A1E      -0.248000
      2 C19         -3.3220    17.8600   -12.9690 ca         1 A1E       0.283100
      3 C20         -4.3920    17.2360   -12.2790 ca         1 A1E      -0.381600
      4 C15         -4.4870    15.8470   -12.3330 ca         1 A1E       0.246100
      5 C16         -3.5830    15.0610   -13.0220 ca         1 A1E      -0.302000
      6 C17         -2.5400    15.7010   -13.6870 ca         1 A1E       0.245100
      7 C1A         -5.3680    18.0010   -11.5430 c          1 A1E       0.595900
      8 C2A         -6.3860    17.2210   -10.8660 cc         1 A1E      -0.096100
      9 C8          -6.4230    15.8690   -10.9860 cd         1 A1E       0.217900
     10 C9          -7.4030    14.9510   -10.4050 ca         1 A1E      -0.072800
     11 C10         -8.7560    15.2680   -10.3300 ca         1 A1E      -0.039000
     12 C11         -9.6580    14.3510    -9.8150 ca         1 A1E      -0.138000
     13 C12         -9.2330    13.1120    -9.3580 ca         1 A1E       0.150100
     14 C13         -7.8690    12.7890    -9.4300 ca         1 A1E       0.029100
     15 C14         -6.9720    13.6970    -9.9570 ca         1 A1E      -0.117000
     16 O9          -5.4980    15.2140   -11.7100 os         1 A1E      -0.214200
     17 O1A         -5.3340    19.2380   -11.4820 o          1 A1E      -0.576100
     18 O8          -7.5280    11.5670    -8.9660 oh         1 A1E      -0.559100
     19 O7         -10.1360    12.2500    -8.8640 oh         1 A1E      -0.528100
     20 O2A         -7.3320    17.8850   -10.1520 os         1 A1E      -0.298100
     21 O10         -1.6190    15.0240   -14.3780 oh         1 A1E      -0.518100
     22 O11         -3.1880    19.1810   -12.9490 oh         1 A1E      -0.535100
     23 C1          -6.9350    18.3430    -8.8920 c6         1 A1E       0.387300
     24 C2          -7.9560    19.3670    -8.4140 c6         1 A1E       0.154300
     25 C3          -7.5790    19.7910    -6.9970 c6         1 A1E       0.090300
     26 C4          -7.4660    18.5660    -6.0930 c6         1 A1E       0.109300
     27 C5          -6.4900    17.5810    -6.7240 c6         1 A1E       0.168600
     28 O2          -7.9490    20.4490    -9.3040 oh         1 A1E      -0.689000
     29 O3          -8.5600    20.7010    -6.5500 oh         1 A1E      -0.665000
     30 O4          -6.9710    18.8890    -4.8160 oh         1 A1E      -0.716000
     31 O5          -6.9070    17.2440    -8.0300 os         1 A1E      -0.475000
     32 H9A         -1.5870    17.5680   -14.1890 ha         1 A1E       0.153000
     33 H8A         -3.6920    13.9830   -13.0410 ha         1 A1E       0.136000
     34 H5A         -9.1250    16.2150   -10.6920 ha         1 A1E       0.141000
     35 H6A        -10.7120    14.5940    -9.7710 ha         1 A1E       0.137000
     36 H7A         -5.9240    13.4240   -10.0020 ha         1 A1E       0.122000
     37 H17         -6.5830    11.4040    -9.0660 ho         1 A1E       0.477000
     38 H16         -9.7100    11.4290    -8.5880 ho         1 A1E       0.486000
     39 H13         -1.7830    14.0730   -14.3400 ho         1 A1E       0.474000
     40 H18         -3.9330    19.5490   -12.4160 ho         1 A1E       0.524000
     41 H1          -5.9380    18.8110    -8.9380 h2         1 A1E       0.053700
     42 H2          -8.9430    18.8750    -8.3850 h1         1 A1E       0.063700
     43 H3          -6.5910    20.2760    -7.0380 h1         1 A1E       0.055700
     44 H4          -8.4530    18.0860    -6.0270 h1         1 A1E       0.059700
     45 H51         -6.4530    16.6530    -6.1530 h1         1 A1E       0.064200
     46 H52         -5.4790    18.0120    -6.7340 h1         1 A1E       0.064200
     47 HO2         -8.4800    21.1510    -8.9130 ho         1 A1E       0.516000
     48 HO3         -8.1540    21.3280    -5.9440 ho         1 A1E       0.453000
     49 HO4         -7.6630    19.3380    -4.3220 ho         1 A1E       0.512000
@<TRIPOS>BOND
     1     1     2 ar  
     2     1     6 ar  
     3     1    32 1   
     4     2     3 ar  
     5     2    22 1   
     6     3     4 ar  
     7     3     7 1   
     8     4     5 ar  
     9     4    16 1   
    10     5     6 ar  
    11     5    33 1   
    12     6    21 1   
    13     7     8 1   
    14     7    17 2   
    15     8     9 2   
    16     8    20 1   
    17     9    10 1   
    18     9    16 1   
    19    10    11 ar  
    20    10    15 ar  
    21    11    12 ar  
    22    11    34 1   
    23    12    13 ar  
    24    12    35 1   
    25    13    14 ar  
    26    13    19 1   
    27    14    15 ar  
    28    14    18 1   
    29    15    36 1   
    30    18    37 1   
    31    19    38 1   
    32    20    23 1   
    33    21    39 1   
    34    22    40 1   
    35    23    24 1   
    36    23    31 1   
    37    23    41 1   
    38    24    25 1   
    39    24    28 1   
    40    24    42 1   
    41    25    26 1   
    42    25    29 1   
    43    25    43 1   
    44    26    27 1   
    45    26    30 1   
    46    26    44 1   
    47    27    31 1   
    48    27    45 1   
    49    27    46 1   
    50    28    47 1   
    51    29    48 1   
    52    30    49 1   
@<TRIPOS>SUBSTRUCTURE
     1 A1E         1 TEMP              0 ****  ****    0 ROOT
