@<TRIPOS>MOLECULE
A1E
   52    55     1     0     0
SMALL
abcg2


@<TRIPOS>ATOM
      1 N1         111.8990   115.0550   128.2060 nu         1 A1E      -0.910400
      2 N3         112.0650   116.6780   126.6170 nc         1 A1E      -0.731300
      3 C4         110.7380   111.7900   129.1040 ca         1 A1E      -0.095000
      4 C5         111.5350   112.6080   128.3130 ca         1 A1E      -0.120300
      5 C6         112.1940   113.8300   128.9110 c3         1 A1E       0.279100
      6 C8         113.1170   119.2700   124.1620 c6         1 A1E       0.192500
      7 C10        114.0130   116.8410   125.2180 cd         1 A1E      -0.313400
      8 C15        113.9360   120.1840   125.0760 c3         1 A1E      -0.125100
      9 C21        116.5770   116.9740   119.7080 ca         1 A1E      -0.116000
     10 C22        116.2790   117.8590   120.7390 ca         1 A1E      -0.084000
     11 CAA        110.3360   110.3350   127.2510 ca         1 A1E      -0.010900
     12 CAB        111.7150   112.2700   126.9740 ca         1 A1E      -0.095000
     13 C13        115.5650   116.2800   119.0720 ca         1 A1E      -0.071000
     14 C7         114.2460   116.4810   119.4870 ca         1 A1E      -0.025000
     15 C3         113.9490   117.3590   120.5250 ca         1 A1E      -0.046000
     16 C2         114.9690   118.0630   121.1550 ca         1 A1E      -0.089300
     17 C1         114.6310   119.0270   122.2630 c3         1 A1E       0.224100
     18 C18        111.1220   111.1390   126.4360 ca         1 A1E      -0.081000
     19 C17        112.6010   115.6520   127.2280 cd         1 A1E       0.735800
     20 N2         113.8390   115.1980   126.9130 ns         1 A1E      -0.438400
     21 C16        110.1350   110.6510   128.5850 ca         1 A1E      -0.081000
     22 N5         112.3280   115.2190   118.3090 n1         1 A1E      -0.459000
     23 C9         112.7800   117.2620   125.6290 cc         1 A1E       0.245400
     24 N9         113.9040   118.3700   123.3270 n3         1 A1E      -0.736600
     25 C11        114.6270   115.7470   125.9030 c          1 A1E       0.581200
     26 C12        112.1240   118.4250   124.9510 c6         1 A1E      -0.029200
     27 C14        114.7570   117.4840   124.0910 c6         1 A1E       0.246000
     28 OP3        115.7370   115.2800   125.6810 o          1 A1E      -0.556000
     29 BR1        109.5320   108.7880   126.5270 br         1 A1E      -0.087100
     30 H1         110.9750   115.4360   128.3320 hn         1 A1E       0.519000
     31 H2         110.5760   112.0390   130.1460 ha         1 A1E       0.119000
     32 H3         111.8580   113.9550   129.9410 h1         1 A1E       0.061700
     33 H4         113.2740   113.6820   128.9800 h1         1 A1E       0.061700
     34 H5         112.5450   119.9050   123.4810 h1         1 A1E       0.056700
     35 H6         113.2780   120.8970   125.5760 hc         1 A1E       0.040367
     36 H7         114.4660   119.6280   125.8520 hc         1 A1E       0.040367
     37 H8         114.6730   120.7580   124.5130 hc         1 A1E       0.040367
     38 H9         117.6040   116.8250   119.4030 ha         1 A1E       0.120000
     39 H10        117.0820   118.3940   121.2310 ha         1 A1E       0.115000
     40 H11        112.3290   112.8830   126.3270 ha         1 A1E       0.119000
     41 H12        115.7850   115.5910   118.2680 ha         1 A1E       0.125000
     42 H13        112.9230   117.4960   120.8420 ha         1 A1E       0.135000
     43 H14        115.5560   119.5160   122.6090 h1         1 A1E       0.040200
     44 H15        113.9960   119.8190   121.8570 h1         1 A1E       0.040200
     45 H16        111.2780   110.8940   125.3940 ha         1 A1E       0.135000
     46 H17        114.2510   114.4240   127.4160 hn         1 A1E       0.326500
     47 H18        109.5170   110.0320   129.2200 ha         1 A1E       0.135000
     48 H20        111.6090   119.0330   125.6980 hc         1 A1E       0.071700
     49 H21        111.3500   118.0390   124.2800 hc         1 A1E       0.071700
     50 H22        115.1420   116.7060   123.4230 h1         1 A1E       0.048200
     51 H23        115.6520   118.0040   124.4770 h1         1 A1E       0.048200
     52 C23        113.1850   115.7810   118.8370 cg         1 A1E       0.327000
@<TRIPOS>BOND
     1     1     5 1   
     2     1    19 1   
     3     1    30 1   
     4     2    19 2   
     5     2    23 1   
     6     3     4 ar  
     7     3    21 ar  
     8     3    31 1   
     9     4     5 1   
    10     4    12 ar  
    11     5    32 1   
    12     5    33 1   
    13     6     8 1   
    14     6    24 1   
    15     6    26 1   
    16     6    34 1   
    17     7    23 2   
    18     7    25 1   
    19     7    27 1   
    20     8    35 1   
    21     8    36 1   
    22     8    37 1   
    23     9    10 ar  
    24     9    13 ar  
    25     9    38 1   
    26    10    16 ar  
    27    10    39 1   
    28    11    18 ar  
    29    11    21 ar  
    30    11    29 1   
    31    12    18 ar  
    32    12    40 1   
    33    13    14 ar  
    34    13    41 1   
    35    14    15 ar  
    36    14    52 1   
    37    15    16 ar  
    38    15    42 1   
    39    16    17 1   
    40    17    24 1   
    41    17    43 1   
    42    17    44 1   
    43    18    45 1   
    44    19    20 1   
    45    20    25 1   
    46    20    46 1   
    47    21    47 1   
    48    22    52 3   
    49    23    26 1   
    50    24    27 1   
    51    25    28 2   
    52    26    48 1   
    53    26    49 1   
    54    27    50 1   
    55    27    51 1   
@<TRIPOS>SUBSTRUCTURE
     1 A1E         1 TEMP              0 ****  ****    0 ROOT
