@<TRIPOS>MOLECULE
A1E
   66    71     1     0     0
SMALL
abcg2


@<TRIPOS>ATOM
      1 C14        -22.9210    28.3930     7.3410 c3         1 A1E       0.144900
      2 C15        -21.4380    31.9040     0.5590 c3         1 A1E       0.166300
      3 C16        -20.2180    32.5150    -0.0830 ca         1 A1E      -0.107300
      4 C35        -23.4170    35.4500     1.0780 ca         1 A1E       0.131400
      5 C36        -24.7800    35.4900     1.2320 ca         1 A1E      -0.071000
      6 C37        -25.4280    36.7410     1.2360 ca         1 A1E      -0.142000
      7 C38        -24.6880    37.9430     1.0830 ca         1 A1E      -0.071000
      8 C39        -23.2870    37.9040     0.9280 ca         1 A1E      -0.057000
      9 C40        -22.6900    36.6770     0.9310 ca         1 A1E       0.118000
     10 C41        -26.7440    37.1750     1.3590 cc         1 A1E      -0.193100
     11 C01        -22.2500    33.3430     4.4490 c          1 A1E       0.634000
     12 C03        -22.3970    33.5980     2.0230 cc         1 A1E       0.583500
     13 C05        -21.2020    31.6970     2.9630 c          1 A1E       0.632000
     14 C07        -20.9590    31.5230     5.3460 ca         1 A1E       0.030600
     15 C08        -19.7210    31.8930     5.8320 ca         1 A1E       0.324900
     16 C10        -19.8340    30.3080     7.4650 ca         1 A1E       0.322900
     17 C11        -21.0940    29.8660     7.0410 ca         1 A1E       0.099100
     18 C12        -21.6720    30.4970     5.9470 ca         1 A1E      -0.144000
     19 C17        -19.8640    32.1340    -1.3770 ca         1 A1E       0.130100
     20 C18        -18.7960    32.7140    -2.0420 ca         1 A1E      -0.149000
     21 C19        -18.0730    33.7000    -1.4030 ca         1 A1E       0.193000
     22 C20        -18.3850    34.0830    -0.1130 ca         1 A1E       0.067000
     23 C21        -19.4510    33.4860     0.5410 ca         1 A1E      -0.051000
     24 C25        -20.4640    29.8800    -1.7220 ca         1 A1E       0.105100
     25 C26        -21.4300    29.0160    -2.2250 ca         1 A1E      -0.128500
     26 C27        -21.3530    27.6590    -1.9560 ca         1 A1E      -0.118500
     27 C28        -20.3120    27.1870    -1.1790 ca         1 A1E       0.144000
     28 C29        -19.3470    28.0320    -0.6720 ca         1 A1E      -0.118500
     29 C30        -19.4210    29.3920    -0.9470 ca         1 A1E      -0.128500
     30 F23        -17.0590    34.2900    -2.0350 f          1 A1E      -0.155000
     31 F31        -20.2380    25.8720    -0.9120 f          1 A1E      -0.177000
     32 N02        -22.6620    33.9810     3.3130 ns         1 A1E      -0.585900
     33 N04        -21.7060    32.4060     1.8950 n          1 A1E      -0.343300
     34 N06        -21.5000    32.2040     4.2170 n          1 A1E      -0.308600
     35 N09        -19.1740    31.2880     6.8790 nb         1 A1E      -0.628000
     36 N42        -26.7010    38.5100     1.2750 na         1 A1E       0.155500
     37 N43        -25.4860    39.0130     1.1090 nc         1 A1E      -0.275400
     38 O13        -21.6430    28.8620     7.7320 os         1 A1E      -0.329100
     39 O24        -20.6130    31.2030    -2.0410 os         1 A1E      -0.253200
     40 O33        -22.5070    33.7380     5.5570 o          1 A1E      -0.513000
     41 O34        -20.5420    30.6980     2.8290 o          1 A1E      -0.509000
     42 CL22       -17.4700    35.3220     0.6540 cl         1 A1E      -0.161000
     43 CL44       -20.9690    36.5770     0.7600 cl         1 A1E      -0.187000
     44 H141       -23.1720    27.5830     8.0210 h1         1 A1E       0.045700
     45 H142       -23.6810    29.1740     7.4260 h1         1 A1E       0.045700
     46 H143       -22.9160    28.0070     6.3190 h1         1 A1E       0.045700
     47 H152       -22.3150    32.1050    -0.0550 h1         1 A1E       0.094200
     48 H151       -21.3430    30.8220     0.6310 h1         1 A1E       0.094200
     49 H361       -25.3380    34.5670     1.3310 ha         1 A1E       0.124000
     50 H391       -22.7090    38.8110     0.8170 ha         1 A1E       0.146000
     51 H411       -27.6700    36.6400     1.4960 h4         1 A1E       0.230000
     52 H081       -19.1610    32.6960     5.3650 h4         1 A1E       0.031100
     53 H101       -19.3630    29.8290     8.3180 h4         1 A1E       0.037100
     54 H121       -22.6410    30.2180     5.5540 ha         1 A1E       0.133000
     55 H181       -18.5410    32.4100    -3.0500 ha         1 A1E       0.152000
     56 H211       -19.6790    33.8120     1.5460 ha         1 A1E       0.133000
     57 H261       -22.2420    29.4030    -2.8260 ha         1 A1E       0.134000
     58 H271       -22.1020    26.9810    -2.3440 ha         1 A1E       0.136000
     59 H291       -18.5380    27.6440    -0.0680 ha         1 A1E       0.136000
     60 H301       -18.6560    30.0470    -0.5500 ha         1 A1E       0.134000
     61 H452       -27.9130    39.9720     0.4190 h1         1 A1E       0.065367
     62 H453       -28.7370    38.8310     1.4970 h1         1 A1E       0.065367
     63 H451       -27.7010    40.0990     2.1760 h1         1 A1E       0.065367
     64 H2         -23.1990    34.8290     3.4500 hn         1 A1E       0.479000
     65 N32        -22.7230    34.2430     0.9830 nf         1 A1E      -0.663100
     66 C45        -27.8310    39.4090     1.3460 c3         1 A1E       0.058900
@<TRIPOS>BOND
     1     1    38 1   
     2     1    44 1   
     3     1    45 1   
     4     1    46 1   
     5     2     3 1   
     6     2    33 1   
     7     2    47 1   
     8     2    48 1   
     9     3    19 ar  
    10     3    23 ar  
    11     4     5 ar  
    12     4     9 ar  
    13     4    65 1   
    14     5     6 ar  
    15     5    49 1   
    16     6     7 ar  
    17     6    10 2   
    18     7     8 ar  
    19     7    37 2   
    20     8     9 ar  
    21     8    50 1   
    22     9    43 1   
    23    10    36 1   
    24    10    51 1   
    25    11    32 1   
    26    11    34 1   
    27    11    40 2   
    28    12    32 1   
    29    12    33 1   
    30    12    65 2   
    31    13    33 1   
    32    13    34 1   
    33    13    41 2   
    34    14    15 ar  
    35    14    18 ar  
    36    14    34 1   
    37    15    35 ar  
    38    15    52 1   
    39    16    17 ar  
    40    16    35 ar  
    41    16    53 1   
    42    17    18 ar  
    43    17    38 1   
    44    18    54 1   
    45    19    20 ar  
    46    19    39 1   
    47    20    21 ar  
    48    20    55 1   
    49    21    22 ar  
    50    21    30 1   
    51    22    23 ar  
    52    22    42 1   
    53    23    56 1   
    54    24    25 ar  
    55    24    29 ar  
    56    24    39 1   
    57    25    26 ar  
    58    25    57 1   
    59    26    27 ar  
    60    26    58 1   
    61    27    28 ar  
    62    27    31 1   
    63    28    29 ar  
    64    28    59 1   
    65    29    60 1   
    66    32    64 1   
    67    36    37 1   
    68    36    66 1   
    69    61    66 1   
    70    62    66 1   
    71    63    66 1   
@<TRIPOS>SUBSTRUCTURE
     1 A1E         1 TEMP              0 ****  ****    0 ROOT
