@<TRIPOS>MOLECULE
A1E
   41    44     1     0     0
SMALL
abcg2


@<TRIPOS>ATOM
      1 N1         117.1980   124.8120   122.3390 na         1 A1E       0.136800
      2 N3         118.3470   125.0380   121.6830 nc         1 A1E      -0.503800
      3 C4         116.2580   127.9380   120.7330 c          1 A1E       0.648700
      4 C5         114.0980   128.9710   120.1590 ca         1 A1E      -0.014000
      5 C6         113.2680   128.8280   119.0380 ca         1 A1E      -0.135000
      6 C7         112.4220   129.8560   118.6420 ca         1 A1E      -0.094000
      7 C8         112.3770   131.0610   119.3500 ca         1 A1E      -0.096000
      8 C10        114.0460   130.1590   120.8700 ca         1 A1E      -0.082300
      9 C15        113.6420   131.4950   122.6990 c2         1 A1E      -0.103400
     10 C17        118.1650   126.1790   121.0250 cd         1 A1E       0.222300
     11 C1         117.0580   123.6390   123.1850 c3         1 A1E       0.072900
     12 C2         116.2820   125.7690   122.1010 cc         1 A1E      -0.135000
     13 C3         116.8630   126.6920   121.2460 cd         1 A1E      -0.231600
     14 O1         116.9200   128.9420   120.4900 o          1 A1E      -0.560100
     15 N2         114.9050   127.8810   120.5700 ns         1 A1E      -0.165000
     16 C9         113.1860   131.1910   120.4620 ca         1 A1E      -0.075300
     17 C11        114.7590   130.6420   122.1190 c5         1 A1E       0.032800
     18 C12        115.7370   131.7770   121.6730 c5         1 A1E      -0.072400
     19 C14        113.3590   132.3240   121.4580 c5         1 A1E       0.018800
     20 C16        113.1000   131.5140   123.9000 c2         1 A1E       0.253000
     21 CL1        113.6030   130.4540   125.1880 cl         1 A1E      -0.170500
     22 CL2        111.8110   132.5990   124.3450 cl         1 A1E      -0.170500
     23 C18        119.2870   126.6690   120.1800 c3         1 A1E       0.156000
     24 F1         118.8470   127.0180   118.9260 f          1 A1E      -0.109000
     25 F2         119.8680   127.7980   120.7130 f          1 A1E      -0.109000
     26 H1         113.2920   127.8970   118.4850 ha         1 A1E       0.115000
     27 H2         111.7880   129.7150   117.7750 ha         1 A1E       0.116000
     28 H3         111.7100   131.8570   119.0430 ha         1 A1E       0.120000
     29 H7         117.1890   122.7390   122.5850 h1         1 A1E       0.064367
     30 H8         117.8080   123.6660   123.9740 h1         1 A1E       0.064367
     31 H9         116.0630   123.6480   123.6210 h1         1 A1E       0.064367
     32 H10        115.3090   125.7460   122.5630 h4         1 A1E       0.162000
     33 H11        114.4760   126.9680   120.5520 hn         1 A1E       0.151000
     34 H12        115.1930   129.8790   122.7550 hc         1 A1E       0.091700
     35 H13        116.3940   131.4270   120.8810 hc         1 A1E       0.068200
     36 H14        116.3490   132.0880   122.5200 hc         1 A1E       0.068200
     37 H15        112.5510   133.0460   121.5060 hc         1 A1E       0.087700
     38 H17        120.0650   125.9140   120.0730 h2         1 A1E       0.074700
     39 C13        114.7820   132.9240   121.2220 c5         1 A1E      -0.074400
     40 H4         114.9180   133.2060   120.1790 hc         1 A1E       0.054200
     41 H5         114.9140   133.8130   121.8390 hc         1 A1E       0.054200
@<TRIPOS>BOND
     1     1     2 1   
     2     1    11 1   
     3     1    12 1   
     4     2    10 2   
     5     3    13 1   
     6     3    14 2   
     7     3    15 1   
     8     4     5 ar  
     9     4     8 ar  
    10     4    15 1   
    11     5     6 ar  
    12     5    26 1   
    13     6     7 ar  
    14     6    27 1   
    15     7    16 ar  
    16     7    28 1   
    17     8    16 ar  
    18     8    17 1   
    19     9    17 1   
    20     9    19 1   
    21     9    20 2   
    22    10    13 1   
    23    10    23 1   
    24    11    29 1   
    25    11    30 1   
    26    11    31 1   
    27    12    13 2   
    28    12    32 1   
    29    15    33 1   
    30    16    19 1   
    31    17    18 1   
    32    17    34 1   
    33    18    35 1   
    34    18    36 1   
    35    18    39 1   
    36    19    37 1   
    37    19    39 1   
    38    20    21 1   
    39    20    22 1   
    40    23    24 1   
    41    23    25 1   
    42    23    38 1   
    43    39    40 1   
    44    39    41 1   
@<TRIPOS>SUBSTRUCTURE
     1 A1E         1 TEMP              0 ****  ****    0 ROOT
