@<TRIPOS>MOLECULE
A1E
   42    43     1     0     0
SMALL
abcg2


@<TRIPOS>ATOM
      1 C4         145.9680   135.8160   138.3530 c6         1 A1E       0.186300
      2 C5         144.6190   135.8380   137.6510 c6         1 A1E      -0.092400
      3 C6         143.8260   134.5500   137.9110 c6         1 A1E       0.040000
      4 C7         142.4150   134.6940   137.2620 c          1 A1E       0.697000
      5 C15        148.9350   138.8110   136.0400 ce         1 A1E      -0.113200
      6 C17        150.6010   140.1540   134.8510 ca         1 A1E      -0.104000
      7 C20        150.0660   142.3880   136.3860 ca         1 A1E      -0.166000
      8 C21        149.3650   141.2170   136.6150 ca         1 A1E      -0.089000
      9 C1         143.6900   134.3470   139.4230 c6         1 A1E      -0.060400
     10 C2         145.0000   134.4180   140.1940 c6         1 A1E       0.153300
     11 C3         145.7770   135.6960   139.8540 c6         1 A1E       0.125300
     12 O8         141.6480   135.5590   137.7070 o          1 A1E      -0.709500
     13 O9         142.2040   133.9000   136.3160 o          1 A1E      -0.709500
     14 O10        144.4650   133.4570   137.2990 oh         1 A1E      -0.689000
     15 O11        146.6610   137.0510   138.1210 os         1 A1E      -0.451100
     16 C12        147.4510   137.1640   137.0590 c          1 A1E       0.597300
     17 O13        147.6400   136.2770   136.2580 o          1 A1E      -0.486000
     18 C14        148.0570   138.5030   137.0030 cf         1 A1E      -0.242200
     19 C16        149.6250   140.0780   135.8510 ca         1 A1E      -0.049800
     20 C18        151.3100   141.3180   134.6180 ca         1 A1E       0.113100
     21 C19        151.0390   142.4520   135.3960 ca         1 A1E       0.044100
     22 O22        151.7630   143.5520   135.1160 oh         1 A1E      -0.560100
     23 O23        152.2460   141.3330   133.6470 oh         1 A1E      -0.537100
     24 O24        147.0490   135.6860   140.4660 oh         1 A1E      -0.668000
     25 O25        145.7770   133.2720   139.9350 oh         1 A1E      -0.631000
     26 H1         146.5740   134.9840   137.9890 h1         1 A1E       0.097700
     27 H2         144.7610   135.9690   136.5740 hc         1 A1E       0.058200
     28 H3         144.0460   136.6970   138.0100 hc         1 A1E       0.058200
     29 H4         149.1800   138.0400   135.3150 ha         1 A1E       0.196000
     30 H7         148.6120   141.2060   137.3910 ha         1 A1E       0.123000
     31 H8         143.0390   135.1310   139.8160 hc         1 A1E       0.056700
     32 H9         143.1950   133.3960   139.6360 hc         1 A1E       0.056700
     33 H10        144.7530   134.4690   141.2680 h1         1 A1E      -0.003300
     34 H11        145.1810   136.5540   140.1990 h1         1 A1E       0.042700
     35 H13        143.8090   133.2140   136.6140 ho         1 A1E       0.476000
     36 H14        147.7720   139.2110   137.7720 ha         1 A1E       0.191000
     37 H15        151.5040   144.2940   135.6750 ho         1 A1E       0.472000
     38 H16        152.6450   142.2070   133.5710 ho         1 A1E       0.477000
     39 H17        146.9360   135.8530   141.4070 ho         1 A1E       0.429000
     40 H18        146.6360   133.4140   140.3470 ho         1 A1E       0.428000
     41 H5         150.8180   139.2830   134.2420 ha         1 A1E       0.135000
     42 H6         149.8550   143.2680   136.9830 ha         1 A1E       0.110000
@<TRIPOS>BOND
     1     1     2 1   
     2     1    11 1   
     3     1    15 1   
     4     1    26 1   
     5     2     3 1   
     6     2    27 1   
     7     2    28 1   
     8     3     4 1   
     9     3     9 1   
    10     3    14 1   
    11     4    12 1   
    12     4    13 1   
    13     5    18 2   
    14     5    19 1   
    15     5    29 1   
    16     6    19 ar  
    17     6    20 ar  
    18     6    41 1   
    19     7     8 ar  
    20     7    21 ar  
    21     7    42 1   
    22     8    19 ar  
    23     8    30 1   
    24     9    10 1   
    25     9    31 1   
    26     9    32 1   
    27    10    11 1   
    28    10    25 1   
    29    10    33 1   
    30    11    24 1   
    31    11    34 1   
    32    14    35 1   
    33    15    16 1   
    34    16    17 2   
    35    16    18 1   
    36    18    36 1   
    37    20    21 ar  
    38    20    23 1   
    39    21    22 1   
    40    22    37 1   
    41    23    38 1   
    42    24    39 1   
    43    25    40 1   
@<TRIPOS>SUBSTRUCTURE
     1 A1E         1 TEMP              0 ****  ****    0 ROOT
