@<TRIPOS>MOLECULE
A1E
   46    50     1     0     0
SMALL
abcg2


@<TRIPOS>ATOM
      1 C           11.0700     1.1150    18.8110 c          1 A1E       0.618700
      2 O           11.1020     2.2510    18.3610 o          1 A1E      -0.588100
      3 N            8.6440    -0.8860    16.7810 nb         1 A1E      -0.666000
      4 CL           6.0600     2.1590    24.9790 cl         1 A1E      -0.197000
      5 C1          10.5430     0.0060    17.9490 ca         1 A1E      -0.180600
      6 N1          11.5010     0.7860    20.0430 n          1 A1E      -0.402800
      7 O1          11.8710     0.3070    23.5100 os         1 A1E      -0.464000
      8 C2           9.2160     0.0120    17.6100 ca         1 A1E       0.360900
      9 C3           9.4070    -1.8050    16.2560 ca         1 A1E       0.373900
     10 C4          10.7940    -1.9150    16.5050 ca         1 A1E      -0.105000
     11 C5          11.5800    -2.9210    15.9010 ca         1 A1E      -0.080000
     12 C6          12.9200    -2.9930    16.1630 ca         1 A1E      -0.111000
     13 C7          13.5180    -2.0620    17.0380 ca         1 A1E      -0.088000
     14 C8          12.7790    -1.0770    17.6360 ca         1 A1E      -0.107000
     15 C9          11.3920    -0.9800    17.3830 ca         1 A1E       0.012000
     16 C10         12.0240     1.8030    20.9410 c6         1 A1E       0.099000
     17 C11         11.0480     2.0650    22.0810 c6         1 A1E      -0.098900
     18 C12         10.7060     0.7760    22.8310 c5         1 A1E       0.232300
     19 C13         10.2340    -0.2870    21.8370 c6         1 A1E      -0.098900
     20 C14         11.2310    -0.4820    20.7010 c6         1 A1E       0.099000
     21 C15         11.6730     0.1800    24.9070 c5         1 A1E       0.208900
     22 C16         10.2740     0.6470    25.1430 ca         1 A1E      -0.117300
     23 C17          9.5490     0.7560    26.3180 ca         1 A1E      -0.080000
     24 C18          8.2440     1.2270    26.2600 ca         1 A1E      -0.098000
     25 C19          7.6930     1.5750    25.0330 ca         1 A1E       0.119000
     26 C20          8.4110     1.4680    23.8500 ca         1 A1E      -0.075000
     27 C21          9.7110     0.9990    23.9320 ca         1 A1E      -0.108300
     28 H1           8.5520     0.7640    18.0210 h4         1 A1E       0.028100
     29 H2           8.9370    -2.5200    15.5860 h4         1 A1E       0.021100
     30 H3          11.1070    -3.6260    15.2290 ha         1 A1E       0.118000
     31 H4          13.5270    -3.7610    15.7030 ha         1 A1E       0.118000
     32 H5          14.5800    -2.1280    17.2370 ha         1 A1E       0.117000
     33 H6          13.2620    -0.3730    18.3010 ha         1 A1E       0.129000
     34 H7          12.9830     1.4540    21.3340 h1         1 A1E       0.065450
     35 H8          12.2150     2.7160    20.3840 h1         1 A1E       0.065450
     36 H9          11.4770     2.7940    22.7720 hc         1 A1E       0.060200
     37 H10         10.1300     2.5020    21.6790 hc         1 A1E       0.060200
     38 H11          9.2710     0.0170    21.4170 hc         1 A1E       0.060200
     39 H12         10.0760    -1.2360    22.3540 hc         1 A1E       0.060200
     40 H13         10.8370    -1.2040    19.9890 h1         1 A1E       0.065450
     41 H14         12.1720    -0.8900    21.0800 h1         1 A1E       0.065450
     42 H15         11.8150    -0.8610    25.2210 h1         1 A1E       0.057200
     43 H16         12.4060     0.7860    25.4500 h1         1 A1E       0.057200
     44 H17          9.9800     0.4830    27.2730 ha         1 A1E       0.124000
     45 H18          7.6580     1.3220    27.1650 ha         1 A1E       0.133000
     46 H19          7.9660     1.7430    22.9020 ha         1 A1E       0.136000
@<TRIPOS>BOND
     1     1     2 2   
     2     1     5 1   
     3     1     6 1   
     4     3     8 ar  
     5     3     9 ar  
     6     4    25 1   
     7     5     8 ar  
     8     5    15 ar  
     9     6    16 1   
    10     6    20 1   
    11     7    18 1   
    12     7    21 1   
    13     8    28 1   
    14     9    10 ar  
    15     9    29 1   
    16    10    11 ar  
    17    10    15 ar  
    18    11    12 ar  
    19    11    30 1   
    20    12    13 ar  
    21    12    31 1   
    22    13    14 ar  
    23    13    32 1   
    24    14    15 ar  
    25    14    33 1   
    26    16    17 1   
    27    16    34 1   
    28    16    35 1   
    29    17    18 1   
    30    17    36 1   
    31    17    37 1   
    32    18    19 1   
    33    18    27 1   
    34    19    20 1   
    35    19    38 1   
    36    19    39 1   
    37    20    40 1   
    38    20    41 1   
    39    21    22 1   
    40    21    42 1   
    41    21    43 1   
    42    22    23 ar  
    43    22    27 ar  
    44    23    24 ar  
    45    23    44 1   
    46    24    25 ar  
    47    24    45 1   
    48    25    26 ar  
    49    26    27 ar  
    50    26    46 1   
@<TRIPOS>SUBSTRUCTURE
     1 A1E         1 TEMP              0 ****  ****    0 ROOT
