@<TRIPOS>MOLECULE
A1E
   23    25     1     0     0
SMALL
abcg2


@<TRIPOS>ATOM
      1 C4          12.5660     2.7920    11.6270 c6         1 A1E      -0.059700
      2 C6          11.0690     1.0610    13.1630 ca         1 A1E      -0.040000
      3 C7          10.4480     0.8820    11.9280 ca         1 A1E      -0.128800
      4 C8           9.1950     0.2580    11.8190 ca         1 A1E      -0.030200
      5 C10          9.8950     0.8520     9.7760 cc         1 A1E      -0.196100
      6 C11         10.8850     1.2510    10.6270 cd         1 A1E      -0.104400
      7 C12         12.1940     1.9370    10.4120 c6         1 A1E       0.006800
      8 C13          8.5340    -0.2260    12.9510 ca         1 A1E      -0.175000
      9 C14          9.1710    -0.0540    14.1680 ca         1 A1E      -0.081000
     10 C15         10.4190     0.5870    14.2890 ca         1 A1E      -0.161000
     11 C2          13.9270     3.5110    11.4610 c          1 A1E       0.735000
     12 O1          14.7200     3.4370    12.4160 o          1 A1E      -0.708500
     13 N9           8.8830     0.2520    10.4910 na         1 A1E      -0.239700
     14 O3          14.0870     4.1070    10.3830 o          1 A1E      -0.708500
     15 S5          12.6500     1.8400    13.1920 ss         1 A1E      -0.116000
     16 H4          11.7890     3.5520    11.7600 h1         1 A1E       0.057700
     17 H10          9.8200     0.9460     8.7040 h4         1 A1E       0.201000
     18 H12A        12.9900     1.2050    10.2340 hc         1 A1E       0.061700
     19 H12B        12.1620     2.5850     9.5360 hc         1 A1E       0.061700
     20 H13          7.5710    -0.7150    12.8890 ha         1 A1E       0.094000
     21 H14          8.6880    -0.4150    15.0670 ha         1 A1E       0.088000
     22 H15         10.8600     0.7090    15.2710 ha         1 A1E       0.111000
     23 H9           8.0390    -0.1180    10.0880 hn         1 A1E       0.331000
@<TRIPOS>BOND
     1     1     7 1   
     2     1    11 1   
     3     1    15 1   
     4     1    16 1   
     5     2     3 ar  
     6     2    10 ar  
     7     2    15 1   
     8     3     4 ar  
     9     3     6 1   
    10     4     8 ar  
    11     4    13 1   
    12     5     6 2   
    13     5    13 1   
    14     5    17 1   
    15     6     7 1   
    16     7    18 1   
    17     7    19 1   
    18     8     9 ar  
    19     8    20 1   
    20     9    10 ar  
    21     9    21 1   
    22    10    22 1   
    23    11    12 1   
    24    11    14 1   
    25    13    23 1   
@<TRIPOS>SUBSTRUCTURE
     1 A1E         1 TEMP              0 ****  ****    0 ROOT
