@<TRIPOS>MOLECULE
A1E
   68    73     1     0     0
SMALL
abcg2


@<TRIPOS>ATOM
      1 C4A        135.0240   133.9440   129.8390 ca         1 A1E      -0.169300
      2 C7         135.0910   132.8110   128.9940 ca         1 A1E       0.357800
      3 C2A        134.5430   134.9910   132.0690 c3         1 A1E      -0.043100
      4 C1A        135.7760   135.0430   132.9840 c3         1 A1E      -0.091100
      5 C5A        135.4980   135.1510   129.0860 c5         1 A1E       0.145300
      6 C6A        135.5940   133.2380   127.6920 cc         1 A1E       0.024800
      7 C8         134.3280   131.4190   130.6070 ca         1 A1E       0.228000
      8 C20        135.8350   132.5420   126.5440 cd         1 A1E      -0.237000
      9 C9         134.2070   132.5000   131.5400 ca         1 A1E      -0.023000
     10 C21        136.3250   133.2680   125.4410 cd         1 A1E       0.033800
     11 C22        136.5690   134.6140   125.5210 cc         1 A1E      -0.293400
     12 C28        136.3120   135.3600   126.7270 c          1 A1E       0.573200
     13 C23        137.1120   135.3490   124.3420 c6         1 A1E       0.241800
     14 C25        136.5530   132.5970   124.1050 c6         1 A1E       0.114200
     15 C24        137.7900   133.2060   123.4380 c          1 A1E       0.645100
     16 C10        133.7450   132.2270   132.8480 ca         1 A1E      -0.171000
     17 C11        133.4270   130.9430   133.2190 ca         1 A1E       0.172100
     18 C18        133.5500   129.8740   132.3020 ca         1 A1E      -0.112000
     19 C19        133.9850   130.1110   131.0300 ca         1 A1E      -0.067000
     20 C26        135.3090   132.8240   123.2030 c3         1 A1E      -0.086400
     21 C27        135.4420   132.2410   121.8010 c3         1 A1E      -0.093100
     22 C3A        134.5810   133.8190   131.1300 ca         1 A1E       0.011700
     23 N2         134.7680   131.5870   129.3310 nb         1 A1E      -0.613000
     24 N1         135.8240   134.5870   127.7660 n          1 A1E      -0.268000
     25 O9         136.7780   131.2130   124.2870 oh         1 A1E      -0.642000
     26 O11        136.4900   136.5770   126.8740 o          1 A1E      -0.578000
     27 O8         137.9770   134.5170   123.5190 os         1 A1E      -0.431100
     28 O10        138.5770   132.5160   122.8290 o          1 A1E      -0.518000
     29 O1         132.9910   130.5820   134.4640 os         1 A1E      -0.328100
     30 C1         132.6110   131.5900   135.3640 c6         1 A1E       0.384300
     31 C2         131.8740   130.9400   136.5250 c6         1 A1E       0.147300
     32 C3         131.5800   131.9950   137.5850 c6         1 A1E       0.089300
     33 C4         132.8340   132.7760   137.9680 c6         1 A1E       0.130300
     34 C5         133.4930   133.3270   136.7030 c6         1 A1E       0.038300
     35 C6         134.8140   134.0760   137.0030 c          1 A1E       0.733000
     36 O2         130.6750   130.3530   136.0430 oh         1 A1E      -0.724000
     37 O3         131.0150   131.3110   138.7070 oh         1 A1E      -0.684000
     38 O4         132.5150   133.8660   138.8270 oh         1 A1E      -0.695000
     39 O5         133.7800   132.2190   135.8390 os         1 A1E      -0.446000
     40 O6A        135.7820   133.3780   137.3800 o          1 A1E      -0.701500
     41 O6B        134.7840   135.3220   136.8520 o          1 A1E      -0.701500
     42 H4A        134.4900   135.9120   131.4860 hc         1 A1E       0.050700
     43 H5A        133.6380   134.9540   132.6770 hc         1 A1E       0.050700
     44 H1A        135.7190   135.9090   133.6450 hc         1 A1E       0.053367
     45 H2A        135.8490   134.1490   133.6030 hc         1 A1E       0.053367
     46 H3A        136.6910   135.1220   132.3930 hc         1 A1E       0.053367
     47 H6         136.3860   135.6140   129.5210 h1         1 A1E       0.084700
     48 H29        134.7350   135.9250   128.9810 h1         1 A1E       0.084700
     49 H19        135.6550   131.4810   126.4950 ha         1 A1E       0.235000
     50 H11        137.7370   136.1810   124.6570 h1         1 A1E       0.078200
     51 H12        136.3220   135.7390   123.6960 h1         1 A1E       0.078200
     52 H22        133.6770   133.0300   133.5630 ha         1 A1E       0.157000
     53 H21        133.2880   128.8760   132.6300 ha         1 A1E       0.132000
     54 H20        134.0800   129.3040   130.3150 ha         1 A1E       0.127000
     55 H13        135.0900   133.8920   123.1500 hc         1 A1E       0.058200
     56 H14        134.4780   132.3560   123.7340 hc         1 A1E       0.058200
     57 H15        134.4980   132.3530   121.2660 hc         1 A1E       0.040700
     58 H16        136.2150   132.7500   121.2230 hc         1 A1E       0.040700
     59 H17        135.6840   131.1780   121.8370 hc         1 A1E       0.040700
     60 H18        137.4740   130.9570   123.6610 ho         1 A1E       0.473000
     61 H1         131.9640   132.3170   134.8540 h2         1 A1E       0.033700
     62 H2         132.5340   130.1750   136.9520 h1         1 A1E       0.073700
     63 H3         130.8470   132.7010   137.1790 h1         1 A1E       0.043700
     64 H4         133.5460   132.1020   138.4560 h1         1 A1E       0.075700
     65 H5         132.8040   134.0120   136.1970 h1         1 A1E       0.034700
     66 HO2        130.1540   130.1030   136.8190 ho         1 A1E       0.508000
     67 HO3        130.3650   131.8840   139.1280 ho         1 A1E       0.441000
     68 HO4        132.2670   133.5080   139.6890 ho         1 A1E       0.483000
@<TRIPOS>BOND
     1     1     2 ar  
     2     1     5 1   
     3     1    22 ar  
     4     2     6 1   
     5     2    23 ar  
     6     3     4 1   
     7     3    22 1   
     8     3    42 1   
     9     3    43 1   
    10     4    44 1   
    11     4    45 1   
    12     4    46 1   
    13     5    24 1   
    14     5    47 1   
    15     5    48 1   
    16     6     8 2   
    17     6    24 1   
    18     7     9 ar  
    19     7    19 ar  
    20     7    23 ar  
    21     8    10 1   
    22     8    49 1   
    23     9    16 ar  
    24     9    22 ar  
    25    10    11 2   
    26    10    14 1   
    27    11    12 1   
    28    11    13 1   
    29    12    24 1   
    30    12    26 2   
    31    13    27 1   
    32    13    50 1   
    33    13    51 1   
    34    14    15 1   
    35    14    20 1   
    36    14    25 1   
    37    15    27 1   
    38    15    28 2   
    39    16    17 ar  
    40    16    52 1   
    41    17    18 ar  
    42    17    29 1   
    43    18    19 ar  
    44    18    53 1   
    45    19    54 1   
    46    20    21 1   
    47    20    55 1   
    48    20    56 1   
    49    21    57 1   
    50    21    58 1   
    51    21    59 1   
    52    25    60 1   
    53    29    30 1   
    54    30    31 1   
    55    30    39 1   
    56    30    61 1   
    57    31    32 1   
    58    31    36 1   
    59    31    62 1   
    60    32    33 1   
    61    32    37 1   
    62    32    63 1   
    63    33    34 1   
    64    33    38 1   
    65    33    64 1   
    66    34    35 1   
    67    34    39 1   
    68    34    65 1   
    69    35    40 1   
    70    35    41 1   
    71    36    66 1   
    72    37    67 1   
    73    38    68 1   
@<TRIPOS>SUBSTRUCTURE
     1 A1E         1 TEMP              0 ****  ****    0 ROOT
