@<TRIPOS>MOLECULE
A1E
   74    75     1     0     0
SMALL
abcg2


@<TRIPOS>ATOM
      1 C4          10.7400   -40.9900    39.1570 c3         1 A1E      -0.074400
      2 C5          11.3760   -40.8820    37.7760 c3         1 A1E      -0.076400
      3 C6          10.4340   -41.3190    36.6600 c3         1 A1E      -0.075400
      4 C7          11.0650   -41.3170    35.2690 c3         1 A1E      -0.071400
      5 C8          11.6630   -39.9840    34.8200 c3         1 A1E      -0.073400
      6 C10         11.2990   -37.4810    34.4490 c3         1 A1E      -0.072400
      7 C13         13.1320   -35.9340    31.3750 c3         1 A1E      -0.074400
      8 C15         15.0860   -34.3900    31.9120 c3         1 A1E      -0.101400
      9 C21         16.4680   -32.4830    26.6680 c3         1 A1E       0.116900
     10 C22         15.7000   -33.4980    25.8650 ca         1 A1E      -0.157300
     11 C24         15.6690   -35.3300    24.2960 ca         1 A1E      -0.099000
     12 C26         13.6110   -34.5300    25.2450 ca         1 A1E      -0.099000
     13 C28         15.9420   -32.5040    29.1240 cc         1 A1E      -0.026600
     14 C1          12.8510   -38.6860    41.5150 c3         1 A1E      -0.090100
     15 C11         11.8790   -37.3770    33.0440 c3         1 A1E      -0.076400
     16 C12         12.5500   -36.0340    32.7800 c3         1 A1E      -0.078400
     17 C14         13.8360   -34.6140    31.0700 c3         1 A1E      -0.075400
     18 C16         15.8660   -33.1380    31.5380 c3         1 A1E       0.057600
     19 C18         17.3500   -34.0820    29.7610 cc         1 A1E      -0.158000
     20 C19         17.5070   -33.9020    28.4340 cd         1 A1E      -0.152000
     21 C2          11.9910   -39.0780    40.3210 c3         1 A1E      -0.075400
     22 C23         16.3720   -34.3780    25.0230 ca         1 A1E      -0.085500
     23 C25         14.2880   -35.4080    24.4070 ca         1 A1E      -0.069000
     24 C27         14.3140   -33.5800    25.9690 ca         1 A1E      -0.085500
     25 C29         14.8930   -31.4620    29.1770 c3         1 A1E      -0.056800
     26 C3          11.6530   -40.5650    40.3040 c3         1 A1E      -0.074400
     27 C9          10.6650   -38.8300    34.7790 c3         1 A1E      -0.075400
     28 N17         16.3770   -33.2060    30.1710 na         1 A1E       0.005300
     29 N20         16.6270   -32.9170    28.0560 na         1 A1E       0.059000
     30 H1           9.8250   -40.3860    39.1820 hc         1 A1E       0.038700
     31 H2          10.4220   -42.0250    39.3190 hc         1 A1E       0.038700
     32 H3          12.2850   -41.4950    37.7480 hc         1 A1E       0.036700
     33 H4          11.6990   -39.8520    37.5980 hc         1 A1E       0.036700
     34 H5           9.5460   -40.6790    36.6710 hc         1 A1E       0.039200
     35 H6          10.0710   -42.3290    36.8750 hc         1 A1E       0.039200
     36 H7          10.3110   -41.6320    34.5400 hc         1 A1E       0.039200
     37 H8          11.8510   -42.0780    35.2360 hc         1 A1E       0.039200
     38 H9          12.1040   -40.1250    33.8300 hc         1 A1E       0.033200
     39 H10         12.4970   -39.7080    35.4750 hc         1 A1E       0.033200
     40 H11         12.0880   -37.2730    35.1810 hc         1 A1E       0.037200
     41 H12         10.5520   -36.6930    34.5820 hc         1 A1E       0.037200
     42 H13         12.3280   -36.0780    30.6470 hc         1 A1E       0.048200
     43 H14         13.8370   -36.7570    31.2140 hc         1 A1E       0.048200
     44 H15         15.7420   -35.2640    31.8460 hc         1 A1E       0.074200
     45 H16         14.8250   -34.2870    32.9670 hc         1 A1E       0.074200
     46 H17         17.4670   -32.3350    26.2620 h1         1 A1E       0.090200
     47 H18         15.9730   -31.5150    26.6640 h1         1 A1E       0.090200
     48 H19         16.2010   -36.0090    23.6430 ha         1 A1E       0.133500
     49 H20         12.5330   -34.5830    25.3300 ha         1 A1E       0.133500
     50 H21         13.0770   -37.6190    41.5140 hc         1 A1E       0.032033
     51 H22         12.3480   -38.9160    42.4560 hc         1 A1E       0.032033
     52 H23         13.8000   -39.2240    41.5100 hc         1 A1E       0.032033
     53 H24         11.0840   -37.5410    32.3080 hc         1 A1E       0.041700
     54 H25         12.6130   -38.1720    32.8790 hc         1 A1E       0.041700
     55 H26         13.3350   -35.8850    33.5280 hc         1 A1E       0.037700
     56 H27         11.8260   -35.2260    32.9330 hc         1 A1E       0.037700
     57 H28         13.1430   -33.7800    31.2190 hc         1 A1E       0.035200
     58 H29         14.1000   -34.6090    30.0080 hc         1 A1E       0.035200
     59 H30         16.7200   -33.0000    32.2000 h1         1 A1E       0.086200
     60 H31         15.2420   -32.2500    31.6230 h1         1 A1E       0.086200
     61 H32         17.8490   -34.7480    30.4440 h4         1 A1E       0.204000
     62 H33         18.1670   -34.3810    27.7310 h4         1 A1E       0.204000
     63 H34         12.5080   -38.7980    39.3990 hc         1 A1E       0.033700
     64 H35         11.0620   -38.5000    40.3340 hc         1 A1E       0.033700
     65 H36         17.4500   -34.3170    24.9320 ha         1 A1E       0.111000
     66 H37         13.7390   -36.1480    23.8400 ha         1 A1E       0.135000
     67 H38         13.7760   -32.8930    26.6130 ha         1 A1E       0.111000
     68 H39         13.9390   -31.8920    29.4830 hc         1 A1E       0.091700
     69 H40         15.1620   -30.6870    29.8930 hc         1 A1E       0.091700
     70 H41         14.7490   -30.9880    28.2110 hc         1 A1E       0.091700
     71 H42         11.1750   -40.8240    41.2540 hc         1 A1E       0.039700
     72 H43         12.5800   -41.1480    40.2660 hc         1 A1E       0.039700
     73 H44         10.1670   -38.7460    35.7490 hc         1 A1E       0.044700
     74 H45          9.8770   -39.0550    34.0520 hc         1 A1E       0.044700
@<TRIPOS>BOND
     1     1     2 1   
     2     1    26 1   
     3     1    30 1   
     4     1    31 1   
     5     2     3 1   
     6     2    32 1   
     7     2    33 1   
     8     3     4 1   
     9     3    34 1   
    10     3    35 1   
    11     4     5 1   
    12     4    36 1   
    13     4    37 1   
    14     5    27 1   
    15     5    38 1   
    16     5    39 1   
    17     6    15 1   
    18     6    27 1   
    19     6    40 1   
    20     6    41 1   
    21     7    16 1   
    22     7    17 1   
    23     7    42 1   
    24     7    43 1   
    25     8    17 1   
    26     8    18 1   
    27     8    44 1   
    28     8    45 1   
    29     9    10 1   
    30     9    29 1   
    31     9    46 1   
    32     9    47 1   
    33    10    22 ar  
    34    10    24 ar  
    35    11    22 ar  
    36    11    23 ar  
    37    11    48 1   
    38    12    23 ar  
    39    12    24 ar  
    40    12    49 1   
    41    13    25 1   
    42    13    28 2   
    43    13    29 1   
    44    14    21 1   
    45    14    50 1   
    46    14    51 1   
    47    14    52 1   
    48    15    16 1   
    49    15    53 1   
    50    15    54 1   
    51    16    55 1   
    52    16    56 1   
    53    17    57 1   
    54    17    58 1   
    55    18    28 1   
    56    18    59 1   
    57    18    60 1   
    58    19    20 2   
    59    19    28 1   
    60    19    61 1   
    61    20    29 1   
    62    20    62 1   
    63    21    26 1   
    64    21    63 1   
    65    21    64 1   
    66    22    65 1   
    67    23    66 1   
    68    24    67 1   
    69    25    68 1   
    70    25    69 1   
    71    25    70 1   
    72    26    71 1   
    73    26    72 1   
    74    27    73 1   
    75    27    74 1   
@<TRIPOS>SUBSTRUCTURE
     1 A1E         1 TEMP              0 ****  ****    0 ROOT
