@<TRIPOS>MOLECULE
A1E
   51    54     1     0     0
SMALL
abcg2


@<TRIPOS>ATOM
      1 C1          -4.8820     3.4620     0.2900 c3         1 A1E       0.059400
      2 C3          -6.1280     1.2960     0.1950 c3         1 A1E       0.059400
      3 C4          -3.7020     1.3590     0.0990 cc         1 A1E       0.434400
      4 C5          -3.6710    -0.0650    -0.0030 cc         1 A1E      -0.382600
      5 C6          -2.4890    -0.7340    -0.0960 cd         1 A1E      -0.005200
      6 C7          -1.2480    -0.0600    -0.1000 cd         1 A1E      -0.220800
      7 C10          0.0330    -2.5440    -1.8090 ca         1 A1E      -0.115000
      8 C11          0.1010    -3.8880    -2.1440 ca         1 A1E      -0.125000
      9 C12          0.2050    -4.8480    -1.1450 ca         1 A1E      -0.110000
     10 C13          0.2380    -4.4590     0.1850 ca         1 A1E      -0.078000
     11 C14          0.1720    -3.1150     0.5340 ca         1 A1E      -0.113600
     12 C15          0.2020    -2.6520     1.9760 c          1 A1E       0.704600
     13 C18          1.1570     0.0850    -0.2320 ca         1 A1E      -0.209000
     14 C19          2.4630    -0.4360    -0.3670 ca         1 A1E       0.051000
     15 C20          3.5590     0.3710    -0.4010 ca         1 A1E      -0.228000
     16 C21          3.4300     1.7900    -0.2960 ca         1 A1E       0.426500
     17 C23          4.3590     4.0220    -0.2180 c3         1 A1E       0.207600
     18 C24          5.8390     2.0260    -0.4940 c3         1 A1E       0.207600
     19 C25          2.1340     2.3260    -0.1620 ca         1 A1E      -0.270500
     20 C26          1.0450     1.4850    -0.1300 ca         1 A1E       0.285500
     21 C28         -1.2940     1.3440    -0.0010 cd         1 A1E       0.285500
     22 C29         -2.4730     2.0470     0.0930 cc         1 A1E      -0.425100
     23 C8          -0.0020    -0.7100    -0.1660 cc         1 A1E       0.347000
     24 C9           0.0700    -2.1590    -0.4720 ca         1 A1E      -0.115000
     25 N2          -4.8690     2.0170     0.1930 nh         1 A1E      -0.336700
     26 N22          4.5110     2.5860    -0.3290 nh         1 A1E      -0.798400
     27 O16          0.2760    -3.5120     2.8650 o          1 A1E      -0.662000
     28 O17          0.1440    -1.4100     2.1170 o          1 A1E      -0.662000
     29 O27         -0.1600     2.0670    -0.0020 os         1 A1E      -0.282000
     30 H1          -4.4360     3.9300    -0.5900 h1         1 A1E       0.048200
     31 H2          -5.9070     3.8090     0.3670 h1         1 A1E       0.048200
     32 H3          -4.3420     3.8110     1.1740 h1         1 A1E       0.048200
     33 H4          -6.2740     0.7340    -0.7290 h1         1 A1E       0.048200
     34 H5          -6.1970     0.6030     1.0360 h1         1 A1E       0.048200
     35 H6          -6.9430     2.0060     0.2850 h1         1 A1E       0.048200
     36 H7          -4.5880    -0.6340    -0.0040 ha         1 A1E       0.196000
     37 H8          -2.5000    -1.8140    -0.1680 ha         1 A1E       0.212000
     38 H9          -0.0470    -1.7940    -2.5870 ha         1 A1E       0.104000
     39 H10          0.0720    -4.1840    -3.1850 ha         1 A1E       0.108000
     40 H11          0.2590    -5.8970    -1.4050 ha         1 A1E       0.111000
     41 H12          0.3180    -5.2020     0.9670 ha         1 A1E       0.146000
     42 H13          2.5950    -1.5070    -0.4440 ha         1 A1E       0.144000
     43 H14          4.5330    -0.0820    -0.5050 ha         1 A1E       0.128000
     44 H15          3.8740     4.3040     0.7180 h1         1 A1E       0.048200
     45 H16          5.3380     4.4900    -0.2400 h1         1 A1E       0.048200
     46 H17          3.7720     4.4300    -1.0450 h1         1 A1E       0.048200
     47 H18          5.9330     1.4760    -1.4320 h1         1 A1E       0.048200
     48 H19          6.5650     2.8330    -0.5100 h1         1 A1E       0.048200
     49 H20          6.1020     1.3570     0.3270 h1         1 A1E       0.048200
     50 H21          1.9660     3.3900    -0.0840 ha         1 A1E       0.137000
     51 H22         -2.4250     3.1240     0.1610 ha         1 A1E       0.205000
@<TRIPOS>BOND
     1     1    25 1   
     2     1    30 1   
     3     1    31 1   
     4     1    32 1   
     5     2    25 1   
     6     2    33 1   
     7     2    34 1   
     8     2    35 1   
     9     3     4 1   
    10     3    22 1   
    11     3    25 2   
    12     4     5 2   
    13     4    36 1   
    14     5     6 1   
    15     5    37 1   
    16     6    21 1   
    17     6    23 2   
    18     7     8 ar  
    19     7    24 ar  
    20     7    38 1   
    21     8     9 ar  
    22     8    39 1   
    23     9    10 ar  
    24     9    40 1   
    25    10    11 ar  
    26    10    41 1   
    27    11    12 1   
    28    11    24 ar  
    29    12    27 1   
    30    12    28 1   
    31    13    14 ar  
    32    13    20 ar  
    33    13    23 1   
    34    14    15 ar  
    35    14    42 1   
    36    15    16 ar  
    37    15    43 1   
    38    16    19 ar  
    39    16    26 1   
    40    17    26 1   
    41    17    44 1   
    42    17    45 1   
    43    17    46 1   
    44    18    26 1   
    45    18    47 1   
    46    18    48 1   
    47    18    49 1   
    48    19    20 ar  
    49    19    50 1   
    50    20    29 1   
    51    21    22 2   
    52    21    29 1   
    53    22    51 1   
    54    23    24 1   
@<TRIPOS>SUBSTRUCTURE
     1 A1E         1 TEMP              0 ****  ****    0 ROOT
