@<TRIPOS>MOLECULE
A1E
   50    49     1     0     0
SMALL
abcg2


@<TRIPOS>ATOM
      1 N           -2.5250    13.1010    75.7350 n8         1 A1E      -1.001200
      2 CA          -1.2440    12.9220    75.0680 c3         1 A1E       0.011500
      3 C            0.0060    13.2610    75.9270 c          1 A1E       0.692000
      4 CB          -1.1830    13.7240    73.7640 c3         1 A1E      -0.052400
      5 O            1.0990    12.8480    75.4850 o          1 A1E      -0.734000
      6 C13         -7.2000    16.4560    71.1050 c3         1 A1E       0.014400
      7 C14         -7.9370    16.3960    69.7540 c3         1 A1E       0.134300
      8 C15         -9.0440    17.4610    69.6690 c3         1 A1E       0.150300
      9 C16         -5.9950    15.5550    71.0670 c2         1 A1E       0.364200
     10 C17         -9.4450    17.8370    68.2390 c3         1 A1E       0.178300
     11 C18         -8.3490    18.5630    67.4710 c3         1 A1E       0.154600
     12 C20         -8.7760    16.0650    74.5090 c3         1 A1E      -0.181100
     13 CG          -2.2720    13.4050    72.7360 c3         1 A1E      -0.059400
     14 CD          -3.5470    14.2300    72.8750 c3         1 A1E      -0.074400
     15 CE          -4.5610    13.8880    71.7900 c3         1 A1E       0.097800
     16 N12         -8.0850    16.1430    72.1980 ns         1 A1E      -0.491900
     17 NZ          -5.7660    14.6750    71.9350 n2         1 A1E      -0.563900
     18 O10         -8.0490    19.7670    68.1370 oh         1 A1E      -0.724000
     19 O11         -7.3120    17.7320    73.6130 o          1 A1E      -0.592100
     20 O7          -9.8080    16.7270    67.4520 oh         1 A1E      -0.732000
     21 O8          -8.4960    15.1190    69.5560 oh         1 A1E      -0.715000
     22 O9         -10.2310    17.0510    70.3120 oh         1 A1E      -0.727000
     23 H           -2.5430    12.5160    76.5630 hn         1 A1E       0.381500
     24 H2          -2.5590    14.0470    76.0980 hn         1 A1E       0.381500
     25 HA          -1.1710    11.8630    74.7920 h1         1 A1E       0.035700
     26 HB2         -0.2060    13.5350    73.3170 hc         1 A1E       0.041700
     27 HB3         -1.2040    14.7970    73.9950 hc         1 A1E       0.041700
     28 H8          -6.8390    17.4810    71.2320 h1         1 A1E       0.100700
     29 H9          -7.1860    16.6260    68.9880 h1         1 A1E       0.043700
     30 H10         -8.6460    18.3720    70.1350 h1         1 A1E       0.065700
     31 H11         -5.3260    15.7260    70.2120 h4         1 A1E      -0.038200
     32 H13        -10.2920    18.5360    68.3380 h1         1 A1E       0.057700
     33 H14         -7.4660    17.9180    67.3770 h1         1 A1E       0.029700
     34 H15         -8.7140    18.7450    66.4520 h1         1 A1E       0.029700
     35 H16         -9.1410    16.8070    75.2160 hc         1 A1E       0.062033
     36 H17         -9.6200    15.4890    74.1310 hc         1 A1E       0.062033
     37 H18         -8.1220    15.3810    75.0520 hc         1 A1E       0.062033
     38 HG2         -2.5170    12.3380    72.7840 hc         1 A1E       0.017700
     39 HG3         -1.8680    13.5720    71.7320 hc         1 A1E       0.017700
     40 HD2         -3.2990    15.2940    72.8030 hc         1 A1E       0.059200
     41 HD3         -3.9850    14.0730    73.8610 hc         1 A1E       0.059200
     42 HE2         -4.8350    12.8320    71.8760 h1         1 A1E       0.037200
     43 HE3         -4.0980    14.0220    70.8020 h1         1 A1E       0.037200
     44 H25         -8.4950    15.2200    72.1740 hn         1 A1E       0.318500
     45 H28         -7.3250    20.1940    67.6720 ho         1 A1E       0.507000
     46 H29        -10.3110    16.1170    68.0000 ho         1 A1E       0.534000
     47 H30         -7.8010    14.5130    69.2820 ho         1 A1E       0.509000
     48 H31        -10.0080    16.7920    71.2140 ho         1 A1E       0.525000
     49 OXT         -0.1750    13.9260    76.9660 o          1 A1E      -0.734000
     50 C19         -7.9840    16.7350    73.4150 c          1 A1E       0.604100
@<TRIPOS>BOND
     1     1     2 1   
     2     1    23 1   
     3     1    24 1   
     4     2     3 1   
     5     2     4 1   
     6     2    25 1   
     7     3     5 1   
     8     3    49 1   
     9     4    13 1   
    10     4    26 1   
    11     4    27 1   
    12     6     7 1   
    13     6     9 1   
    14     6    16 1   
    15     6    28 1   
    16     7     8 1   
    17     7    21 1   
    18     7    29 1   
    19     8    10 1   
    20     8    22 1   
    21     8    30 1   
    22     9    17 2   
    23     9    31 1   
    24    10    11 1   
    25    10    20 1   
    26    10    32 1   
    27    11    18 1   
    28    11    33 1   
    29    11    34 1   
    30    12    35 1   
    31    12    36 1   
    32    12    37 1   
    33    12    50 1   
    34    13    14 1   
    35    13    38 1   
    36    13    39 1   
    37    14    15 1   
    38    14    40 1   
    39    14    41 1   
    40    15    17 1   
    41    15    42 1   
    42    15    43 1   
    43    16    44 1   
    44    16    50 1   
    45    18    45 1   
    46    19    50 2   
    47    20    46 1   
    48    21    47 1   
    49    22    48 1   
@<TRIPOS>SUBSTRUCTURE
     1 A1E         1 TEMP              0 ****  ****    0 ROOT
