@<TRIPOS>MOLECULE
A1E
   41    43     1     0     0
SMALL
abcg2


@<TRIPOS>ATOM
      1 N1         -16.5160    48.3720    -7.2080 nv         1 A1E      -1.107900
      2 N3         -14.6850    46.9830    -7.4270 nb         1 A1E      -0.382000
      3 C4         -13.7610    46.2090    -6.8620 ca         1 A1E       0.062900
      4 C6         -14.5080    46.5260    -4.8180 ca         1 A1E       0.095500
      5 C7         -15.5190    47.3660    -5.2610 ca         1 A1E      -0.052600
      6 C13        -14.4060    44.5520    -0.5760 c5         1 A1E       0.103300
      7 C20        -13.1250    45.3610    -0.3310 c5         1 A1E       0.220300
      8 C26        -13.2360    46.4490    -1.4090 c5         1 A1E       0.233300
      9 C11        -13.8680    45.6550    -2.5550 c5         1 A1E       0.257300
     10 C14        -15.6290    44.9510     0.2270 c3         1 A1E       0.241600
     11 C2         -15.5910    47.5830    -6.6470 ca         1 A1E       0.358900
     12 C9         -15.7400    47.2450    -3.1630 cc         1 A1E       0.551700
     13 N10        -14.6600    46.4590    -3.4650 na         1 A1E      -0.186300
     14 N5         -13.5980    45.9230    -5.5830 nb         1 A1E      -0.128000
     15 N8         -16.2790    47.8040    -4.2080 nd         1 A1E      -0.665100
     16 O12        -14.6720    44.6670    -1.9850 os         1 A1E      -0.511000
     17 O15        -15.9950    46.2710    -0.0100 os         1 A1E      -0.587400
     18 O17        -17.4470    46.8580     2.0320 o          1 A1E      -0.950833
     19 O18        -18.5300    45.8070    -0.0420 o          1 A1E      -0.950833
     20 O19        -17.5680    48.1960    -0.1650 o          1 A1E      -0.950833
     21 O21        -11.9870    44.5870    -0.5570 os         1 A1E      -0.585400
     22 O23        -12.3150    42.7930     1.2800 o          1 A1E      -0.955500
     23 O24        -10.9120    44.8800     1.7600 o          1 A1E      -0.955500
     24 O25        -10.0710    43.1250     0.0690 o          1 A1E      -0.955500
     25 O27        -12.0530    47.0430    -1.8080 os         1 A1E      -0.561400
     26 O29        -10.3850    48.8980    -1.9160 o          1 A1E      -0.942833
     27 O30        -12.0230    48.7980     0.0720 o          1 A1E      -0.942833
     28 O31        -12.8790    49.4400    -2.2560 o          1 A1E      -0.942833
     29 P16        -17.5380    46.8260     0.5090 p5         1 A1E       1.298900
     30 P22        -11.2590    43.7730     0.7670 p5         1 A1E       1.301900
     31 P28        -11.8180    48.7080    -1.4380 p5         1 A1E       1.290900
     32 H1         -16.6110    48.3880    -8.2090 hn         1 A1E       0.453000
     33 H2         -17.2850    48.7180    -6.6620 hn         1 A1E       0.453000
     34 H3         -13.0550    45.7520    -7.5480 h5         1 A1E      -0.023900
     35 H4         -14.2050    43.5020    -0.3490 h1         1 A1E       0.054700
     36 H5         -13.1240    45.8070     0.6730 h1         1 A1E       0.088700
     37 H6         -13.9690    47.1790    -1.0490 h1         1 A1E       0.073700
     38 H7         -13.0780    45.2150    -3.1740 h2         1 A1E       0.073700
     39 H8         -16.4450    44.2580    -0.0220 h1         1 A1E      -0.025300
     40 H9         -15.3870    44.7650     1.2870 h1         1 A1E      -0.025300
     41 H10        -16.0920    47.3640    -2.1480 h5         1 A1E       0.171800
@<TRIPOS>BOND
     1     1    11 1   
     2     1    32 1   
     3     1    33 1   
     4     2     3 ar  
     5     2    11 ar  
     6     3    14 ar  
     7     3    34 1   
     8     4     5 ar  
     9     4    13 1   
    10     4    14 ar  
    11     5    11 ar  
    12     5    15 1   
    13     6     7 1   
    14     6    10 1   
    15     6    16 1   
    16     6    35 1   
    17     7     8 1   
    18     7    21 1   
    19     7    36 1   
    20     8     9 1   
    21     8    25 1   
    22     8    37 1   
    23     9    13 1   
    24     9    16 1   
    25     9    38 1   
    26    10    17 1   
    27    10    39 1   
    28    10    40 1   
    29    12    13 1   
    30    12    15 2   
    31    12    41 1   
    32    17    29 1   
    33    18    29 1   
    34    19    29 1   
    35    20    29 1   
    36    21    30 1   
    37    22    30 1   
    38    23    30 1   
    39    24    30 1   
    40    25    31 1   
    41    26    31 1   
    42    27    31 1   
    43    28    31 1   
@<TRIPOS>SUBSTRUCTURE
     1 A1E         1 TEMP              0 ****  ****    0 ROOT
