@<TRIPOS>MOLECULE
A1E
   59    63     1     0     0
SMALL
abcg2


@<TRIPOS>ATOM
      1 N1          -0.6560   -27.8080    -5.6990 nv         1 A1E      -1.083900
      2 N3          -2.6500   -26.8340    -6.3240 nb         1 A1E      -0.327000
      3 C4          -3.3110   -25.7830    -6.8010 ca         1 A1E       0.151900
      4 C6          -1.5090   -24.5490    -7.0290 ca         1 A1E       0.127500
      5 C7          -0.6870   -25.5570    -6.5500 ca         1 A1E      -0.090600
      6 C13          0.0010   -20.6670    -9.2130 c5         1 A1E       0.143300
      7 C24          3.1810   -18.6520    -3.6850 c3         1 A1E       0.235600
      8 C11         -1.0630   -22.2270    -7.8460 c5         1 A1E       0.292300
      9 C14          1.5340   -20.6470    -9.1470 c3         1 A1E       0.220600
     10 C2          -1.3210   -26.7580    -6.1820 ca         1 A1E       0.434900
     11 C25          3.5600   -18.0110    -2.3750 c5         1 A1E       0.141300
     12 C27          4.2920   -16.0170    -1.5050 c5         1 A1E       0.384300
     13 C33          3.0640   -16.4320    -0.6540 c5         1 A1E       0.085300
     14 C34          2.3970   -17.5110    -1.5220 c5         1 A1E       0.137300
     15 C36         -0.6690   -19.9390    -8.0660 c5         1 A1E       0.112300
     16 C38         -0.6380   -21.0280    -6.9990 c5         1 A1E       0.108300
     17 C9           0.5890   -23.9360    -6.9930 cc         1 A1E       0.450700
     18 N10         -0.6720   -23.5050    -7.3070 na         1 A1E      -0.258300
     19 N5          -2.8300   -24.6100    -7.1750 nb         1 A1E      -0.194000
     20 N8           0.6230   -25.1520    -6.5390 nd         1 A1E      -0.595100
     21 O12         -0.4510   -22.0270    -9.0990 os         1 A1E      -0.485000
     22 O15          2.0100   -19.3280    -8.9700 os         1 A1E      -0.592400
     23 O17          3.4180   -17.5630    -7.8760 o          1 A1E      -0.832000
     24 O18          4.1450   -20.0740    -7.7540 o          1 A1E      -0.832000
     25 O19          2.1670   -19.3210    -6.4270 os         1 A1E      -0.746800
     26 O21          0.6880   -17.1850    -6.1920 o          1 A1E      -0.846500
     27 O22          0.3660   -19.2830    -4.6810 o          1 A1E      -0.846500
     28 O23          2.4080   -17.7630    -4.4600 os         1 A1E      -0.590400
     29 O26          4.3200   -16.8320    -2.6140 os         1 A1E      -0.393000
     30 O28          5.4440   -16.2160    -0.6930 os         1 A1E      -0.596400
     31 O32          3.5450   -16.9690     0.5710 os         1 A1E      -0.560400
     32 O35          1.8110   -18.5660    -0.8290 oh         1 A1E      -0.681000
     33 O37         -2.0000   -19.6450    -8.4330 oh         1 A1E      -0.743000
     34 O39         -1.4600   -20.8070    -5.9010 oh         1 A1E      -0.775000
     35 P16          3.0940   -19.0130    -7.7660 p5         1 A1E       1.461800
     36 P20          1.2620   -18.3520    -5.4650 p5         1 A1E       1.483800
     37 P29          5.1410   -16.9320     0.7140 p5         1 A1E       1.340200
     38 H1          -1.1440   -28.6570    -5.4700 hn         1 A1E       0.495000
     39 H2           0.3440   -27.7910    -5.6030 hn         1 A1E       0.495000
     40 H3          -4.3840   -25.9100    -6.8930 h5         1 A1E       0.027100
     41 H4          -0.3330   -20.2740   -10.1770 h1         1 A1E       0.076700
     42 H5           2.6420   -19.5750    -3.4480 h1         1 A1E       0.051200
     43 H6           4.0890   -18.9400    -4.2270 h1         1 A1E       0.051200
     44 H7          -2.1520   -22.2690    -7.9400 h2         1 A1E       0.097700
     45 H8           1.8750   -21.3130    -8.3500 h1         1 A1E       0.021200
     46 H9           1.9340   -21.0570   -10.0800 h1         1 A1E       0.021200
     47 H10          4.1470   -18.7530    -1.8150 h1         1 A1E       0.051700
     48 H11          4.2960   -14.9760    -1.8270 h2         1 A1E       0.111700
     49 H12          2.4050   -15.5950    -0.4260 h1         1 A1E       0.079700
     50 H13          1.6810   -16.9980    -2.1760 h1         1 A1E       0.092700
     51 H14         -0.1420   -19.0290    -7.7800 h1         1 A1E       0.118700
     52 H15          0.4010   -21.1770    -6.6800 h1         1 A1E       0.082700
     53 H16          1.4550   -23.3040    -7.1280 h5         1 A1E       0.094800
     54 H19          6.2410   -18.7570     1.1560 ho         1 A1E       0.476000
     55 H20          0.9260   -18.3080    -0.5530 ho         1 A1E       0.507000
     56 H21         -2.4970   -19.5100    -7.6180 ho         1 A1E       0.516000
     57 H22         -0.9210   -20.2160    -5.3200 ho         1 A1E       0.604000
     58 O30          5.7020   -16.2690     1.8990 o          1 A1E      -0.575000
     59 O31          5.5720   -18.4540     0.5270 oh         1 A1E      -0.737400
@<TRIPOS>BOND
     1     1    10 1   
     2     1    38 1   
     3     1    39 1   
     4     2     3 ar  
     5     2    10 ar  
     6     3    19 ar  
     7     3    40 1   
     8     4     5 ar  
     9     4    18 1   
    10     4    19 ar  
    11     5    10 ar  
    12     5    20 1   
    13     6     9 1   
    14     6    15 1   
    15     6    21 1   
    16     6    41 1   
    17     7    11 1   
    18     7    28 1   
    19     7    42 1   
    20     7    43 1   
    21     8    16 1   
    22     8    18 1   
    23     8    21 1   
    24     8    44 1   
    25     9    22 1   
    26     9    45 1   
    27     9    46 1   
    28    11    14 1   
    29    11    29 1   
    30    11    47 1   
    31    12    13 1   
    32    12    29 1   
    33    12    30 1   
    34    12    48 1   
    35    13    14 1   
    36    13    31 1   
    37    13    49 1   
    38    14    32 1   
    39    14    50 1   
    40    15    16 1   
    41    15    33 1   
    42    15    51 1   
    43    16    34 1   
    44    16    52 1   
    45    17    18 1   
    46    17    20 2   
    47    17    53 1   
    48    22    35 1   
    49    23    35 1   
    50    24    35 1   
    51    25    35 1   
    52    25    36 1   
    53    26    36 1   
    54    27    36 1   
    55    28    36 1   
    56    30    37 1   
    57    31    37 1   
    58    32    55 1   
    59    33    56 1   
    60    34    57 1   
    61    37    58 2   
    62    37    59 1   
    63    54    59 1   
@<TRIPOS>SUBSTRUCTURE
     1 A1E         1 TEMP              0 ****  ****    0 ROOT
