@<TRIPOS>MOLECULE
A1E
   82    86     1     0     0
SMALL
abcg2


@<TRIPOS>ATOM
      1 C22         -1.3780    -0.7770     1.9130 ca         1 A1E       0.416900
      2 C25         -1.1010    -2.7230     0.3780 ca         1 A1E       0.413000
      3 C30         -2.4510    -3.0610     0.2350 ca         1 A1E      -0.227000
      4 C29         -2.8060    -4.0830    -0.6130 ca         1 A1E       0.234000
      5 C28         -1.8910    -4.8270    -1.3350 ca         1 A1E      -0.215000
      6 C27         -0.5600    -4.4970    -1.1900 ca         1 A1E       0.006000
      7 C26         -0.1330    -3.4600    -0.3560 ca         1 A1E      -0.240600
      8 C18         -1.4590     1.2990     3.0440 ca         1 A1E       0.184900
      9 C17         -0.7080     0.3960     2.3300 ca         1 A1E       0.064000
     10 C13          0.9100     0.9980     0.6820 cc         1 A1E      -0.069200
     11 C10          2.0870     1.0570    -0.0710 cd         1 A1E       0.036800
     12 CE           4.3870     0.7410    -0.8400 c3         1 A1E       0.216800
     13 CD           5.7380     1.1830    -0.3050 c3         1 A1E      -0.093400
     14 CG           6.8270     1.0400    -1.3610 c3         1 A1E      -0.076400
     15 CB           8.2000     1.4650    -0.8580 c3         1 A1E      -0.100400
     16 CA           9.3150     1.3570    -1.9120 c3         1 A1E       0.019500
     17 C           10.6110     1.9510    -1.3120 c          1 A1E       0.726000
     18 C11          1.3440     1.5060    -1.2620 c          1 A1E       0.477300
     19 C12          0.0800     1.4020    -0.4470 c          1 A1E       0.485300
     20 C20         -3.2790    -0.0180     2.9080 ca         1 A1E       0.407900
     21 C31          1.3070    -3.1360    -0.2800 c          1 A1E       0.628700
     22 C34          3.4680    -3.7020    -1.0230 c3         1 A1E       0.152900
     23 C35         -5.5380     0.7600     3.5150 c3         1 A1E       0.271100
     24 C36         -6.2180     1.3770     2.3110 ca         1 A1E      -0.123300
     25 C37         -7.5250     1.8420     2.4100 ca         1 A1E      -0.103000
     26 C38         -8.1490     2.4230     1.3130 ca         1 A1E      -0.117000
     27 C39         -7.4870     2.5260     0.1010 ca         1 A1E      -0.072000
     28 C40         -6.1800     2.0520    -0.0210 ca         1 A1E      -0.105500
     29 C41         -5.5560     1.4980     1.0950 ca         1 A1E      -0.093000
     30 C42         -5.4870     2.1850    -1.3050 cc         1 A1E       0.441000
     31 C44         -4.8370     2.9680    -3.1840 cd         1 A1E       0.224900
     32 C45         -4.1920     1.7760    -3.0240 cc         1 A1E      -0.212000
     33 F48         -4.1070    -4.3650    -0.7400 f          1 A1E      -0.175000
     34 NZ           3.3590     0.8090     0.1860 nu         1 A1E      -0.772200
     35 N            9.5530     0.0100    -2.4110 n8         1 A1E      -0.985200
     36 N16          0.6250     0.6560     1.9470 nu         1 A1E      -0.819000
     37 N19         -2.7370     1.1160     3.3480 nb         1 A1E      -0.250000
     38 N21         -2.6450    -0.9730     2.2160 nb         1 A1E      -0.322000
     39 N23         -4.5820    -0.2610     3.1710 nu         1 A1E      -0.906100
     40 N24         -0.6780    -1.6850     1.1780 nu         1 A1E      -0.942900
     41 N43         -5.6390     3.2120    -2.1140 nd         1 A1E      -0.670000
     42 N46         -4.6150     1.2790    -1.8240 na         1 A1E      -0.142500
     43 O           11.4520     1.1430    -0.8710 o          1 A1E      -0.729500
     44 O32          2.0570    -3.9260    -1.0230 os         1 A1E      -0.430100
     45 O33          1.7790    -2.2340     0.3870 o          1 A1E      -0.534000
     46 H301        -3.2100    -2.5270     0.7840 ha         1 A1E       0.169000
     47 H281        -2.2060    -5.6290    -1.9870 ha         1 A1E       0.138000
     48 H271         0.1680    -5.0630    -1.7510 ha         1 A1E       0.135000
     49 H181        -1.0020     2.2270     3.3740 h4         1 A1E       0.035100
     50 HE2          4.0870     1.3760    -1.6730 h1         1 A1E       0.050700
     51 HE3          4.4570    -0.2820    -1.2250 h1         1 A1E       0.050700
     52 HD3          5.6750     2.2220     0.0320 hc         1 A1E       0.045200
     53 HD2          6.0010     0.5830     0.5720 hc         1 A1E       0.045200
     54 HG2          6.8540    -0.0030    -1.6950 hc         1 A1E       0.030200
     55 HG3          6.5620     1.6360    -2.2410 hc         1 A1E       0.030200
     56 HB2          8.1420     2.5010    -0.5110 hc         1 A1E       0.044700
     57 HB3          8.4740     0.8600     0.0150 hc         1 A1E       0.044700
     58 HA           9.0180     1.9810    -2.7640 h1         1 A1E       0.044700
     59 H341         3.7120    -2.7020    -1.3820 h1         1 A1E       0.055367
     60 H343         3.8910    -3.8420    -0.0290 h1         1 A1E       0.055367
     61 H342         3.8830    -4.4410    -1.7010 h1         1 A1E       0.055367
     62 H352        -5.0300     1.5300     4.0970 h1         1 A1E       0.073200
     63 H351        -6.2930     0.3230     4.1710 h1         1 A1E       0.073200
     64 H371        -8.0620     1.7470     3.3460 ha         1 A1E       0.107000
     65 H381        -9.1660     2.7810     1.4010 ha         1 A1E       0.112000
     66 H391        -7.9840     2.9620    -0.7550 ha         1 A1E       0.132000
     67 H411        -4.5280     1.1760     1.0100 ha         1 A1E       0.121000
     68 H441        -4.7610     3.6570    -4.0110 h4         1 A1E       0.035100
     69 H451        -3.4950     1.2400    -3.6470 h4         1 A1E       0.159000
     70 H472        -3.3820     0.0670    -0.6200 h1         1 A1E       0.056367
     71 H473        -5.0600    -0.4820    -0.7820 h1         1 A1E       0.056367
     72 H471        -3.9390    -0.6570    -2.1320 h1         1 A1E       0.056367
     73 HZ1          3.5880     0.4000     1.0810 hn         1 A1E       0.487000
     74 H            9.9640    -0.5380    -1.6650 hn         1 A1E       0.372500
     75 H2           8.6800    -0.4380    -2.6560 hn         1 A1E       0.372500
     76 H161         1.3790     0.3890     2.5650 hn         1 A1E       0.501000
     77 H231        -4.9510    -1.0930     2.7370 hn         1 A1E       0.492000
     78 H241         0.3270    -1.5340     1.1310 hn         1 A1E       0.549000
     79 OXT         10.6810     3.1970    -1.2790 o          1 A1E      -0.729500
     80 C47         -4.2260    -0.0160    -1.3020 c3         1 A1E       0.055900
     81 O15         -1.1050     1.5660    -0.6500 o          1 A1E      -0.514100
     82 O14          1.6260     1.8120    -2.3970 o          1 A1E      -0.482100
@<TRIPOS>BOND
     1     1     9 ar  
     2     1    38 ar  
     3     1    40 1   
     4     2     3 ar  
     5     2     7 ar  
     6     2    40 1   
     7     3     4 ar  
     8     3    46 1   
     9     4     5 ar  
    10     4    33 1   
    11     5     6 ar  
    12     5    47 1   
    13     6     7 ar  
    14     6    48 1   
    15     7    21 1   
    16     8     9 ar  
    17     8    37 ar  
    18     8    49 1   
    19     9    36 1   
    20    10    11 2   
    21    10    19 1   
    22    10    36 1   
    23    11    18 1   
    24    11    34 1   
    25    12    13 1   
    26    12    34 1   
    27    12    50 1   
    28    12    51 1   
    29    13    14 1   
    30    13    52 1   
    31    13    53 1   
    32    14    15 1   
    33    14    54 1   
    34    14    55 1   
    35    15    16 1   
    36    15    56 1   
    37    15    57 1   
    38    16    17 1   
    39    16    35 1   
    40    16    58 1   
    41    17    43 1   
    42    17    79 1   
    43    18    19 1   
    44    18    82 2   
    45    19    81 2   
    46    20    37 ar  
    47    20    38 ar  
    48    20    39 1   
    49    21    44 1   
    50    21    45 2   
    51    22    44 1   
    52    22    59 1   
    53    22    60 1   
    54    22    61 1   
    55    23    24 1   
    56    23    39 1   
    57    23    62 1   
    58    23    63 1   
    59    24    25 ar  
    60    24    29 ar  
    61    25    26 ar  
    62    25    64 1   
    63    26    27 ar  
    64    26    65 1   
    65    27    28 ar  
    66    27    66 1   
    67    28    29 ar  
    68    28    30 1   
    69    29    67 1   
    70    30    41 2   
    71    30    42 1   
    72    31    32 2   
    73    31    41 1   
    74    31    68 1   
    75    32    42 1   
    76    32    69 1   
    77    34    73 1   
    78    35    74 1   
    79    35    75 1   
    80    36    76 1   
    81    39    77 1   
    82    40    78 1   
    83    42    80 1   
    84    70    80 1   
    85    71    80 1   
    86    72    80 1   
@<TRIPOS>SUBSTRUCTURE
     1 A1E         1 TEMP              0 ****  ****    0 ROOT
