@<TRIPOS>MOLECULE
A1E
   14    13     1     0     0
SMALL
abcg2


@<TRIPOS>ATOM
      1 C4         -32.0610    19.7690    20.2660 c3         1 A1E      -0.022000
      2 C5         -34.4840    19.9330    20.3660 c          1 A1E       0.602100
      3 C6         -35.7780    19.1690    20.5000 c3         1 A1E      -0.177100
      4 C7         -30.9790    18.7370    20.3040 c          1 A1E       0.562900
      5 N3         -33.3650    19.1870    20.3710 ns         1 A1E      -0.504900
      6 O1         -34.4550    21.1510    20.2620 o          1 A1E      -0.608100
      7 O2         -31.1690    17.5530    20.4160 o          1 A1E      -0.516100
      8 H1         -31.8570    20.4810    21.0760 h1         1 A1E       0.073700
      9 H2         -31.9340    20.3400    19.3390 h1         1 A1E       0.073700
     10 H3         -36.3130    19.5180    21.3830 hc         1 A1E       0.061367
     11 H4         -36.4100    19.3730    19.6370 hc         1 A1E       0.061367
     12 H5         -35.6430    18.0920    20.5830 hc         1 A1E       0.061367
     13 H6         -29.9630    19.1560    20.2210 h4         1 A1E      -0.001800
     14 H7         -33.4260    18.1860    20.4660 hn         1 A1E       0.333500
@<TRIPOS>BOND
     1     1     4 1   
     2     1     5 1   
     3     1     8 1   
     4     1     9 1   
     5     2     3 1   
     6     2     5 1   
     7     2     6 2   
     8     3    10 1   
     9     3    11 1   
    10     3    12 1   
    11     4     7 2   
    12     4    13 1   
    13     5    14 1   
@<TRIPOS>SUBSTRUCTURE
     1 A1E         1 TEMP              0 ****  ****    0 ROOT
