@<TRIPOS>MOLECULE
A1E
   51    54     1     0     0
SMALL
abcg2


@<TRIPOS>ATOM
      1 N1         -14.8280   -19.6400     5.1480 nb         1 A1E      -0.314000
      2 N3         -17.2710   -21.6630     2.7110 na         1 A1E      -0.016100
      3 C4         -15.5640   -21.6360     4.1130 ca         1 A1E      -0.379900
      4 C5         -15.7900   -22.9410     3.5990 cc         1 A1E       0.424500
      5 C6         -15.0840   -24.1990     3.8660 ca         1 A1E      -0.100900
      6 C7         -14.7850   -25.0590     2.8190 ca         1 A1E      -0.025000
      7 C8         -14.1300   -26.2580     3.0880 ca         1 A1E       0.091400
      8 C10        -14.0860   -25.7350     5.4650 ca         1 A1E      -0.077000
      9 C13        -12.6280   -29.3640     1.9190 c3         1 A1E      -0.089000
     10 C17        -18.4350   -21.3110     1.8680 c3         1 A1E       0.134000
     11 C20        -18.0110   -20.2450     0.8570 c3         1 A1E      -0.101100
     12 C1         -14.6420   -20.9440     4.9350 ca         1 A1E       0.455900
     13 C11        -14.7410   -24.5520     5.1820 ca         1 A1E      -0.104000
     14 C12        -13.1740   -28.1980     2.6790 cc         1 A1E       0.411200
     15 C14        -11.0950   -29.2740     1.8550 c3         1 A1E      -0.071400
     16 C16        -13.1170   -30.6890     2.5010 c3         1 A1E      -0.088100
     17 C18        -19.5580   -20.7950     2.7670 c3         1 A1E      -0.101100
     18 C19        -18.9100   -22.5520     1.1200 c3         1 A1E      -0.101100
     19 C2         -15.8480   -19.0300     4.5460 ca         1 A1E       0.193900
     20 C3         -16.5550   -20.8490     3.5160 ca         1 A1E       0.156500
     21 C9         -13.7800   -26.5820     4.4080 ca         1 A1E      -0.181000
     22 N2         -16.7330   -19.5380     3.7170 nb         1 A1E      -0.234000
     23 N4         -16.8050   -22.9160     2.7680 nd         1 A1E      -0.513100
     24 N5         -13.7700   -27.1930     2.1460 nd         1 A1E      -0.533100
     25 N6         -13.5900   -21.5230     5.5150 nv         1 A1E      -1.069900
     26 S1         -12.9800   -28.1130     4.4230 ss         1 A1E       0.011800
     27 H1         -15.0400   -24.8030     1.7990 ha         1 A1E       0.145000
     28 H2         -13.8330   -25.9920     6.4850 ha         1 A1E       0.126000
     29 H3         -13.0180   -29.2580     0.9020 hc         1 A1E       0.080700
     30 H4          -9.3930   -30.1470     0.8520 hc         1 A1E       0.035367
     31 H5         -10.6140   -31.3270     1.2980 hc         1 A1E       0.035367
     32 H6         -10.8890   -30.2510    -0.0710 hc         1 A1E       0.035367
     33 H7         -17.6860   -19.3290     1.3470 hc         1 A1E       0.050922
     34 H8         -17.2000   -20.6100     0.2270 hc         1 A1E       0.050922
     35 H9         -18.8560   -20.0020     0.2120 hc         1 A1E       0.050922
     36 H10        -15.0190   -23.8990     6.0010 ha         1 A1E       0.124000
     37 H11        -10.6850   -29.3800     2.8640 hc         1 A1E       0.046700
     38 H12        -10.8180   -28.2730     1.5120 hc         1 A1E       0.046700
     39 H13        -14.2020   -30.7030     2.5960 hc         1 A1E       0.042367
     40 H14        -12.8340   -31.5200     1.8550 hc         1 A1E       0.042367
     41 H15        -12.6870   -30.8780     3.4860 hc         1 A1E       0.042367
     42 H16        -19.8490   -21.5500     3.4980 hc         1 A1E       0.050922
     43 H17        -19.2650   -19.8910     3.2990 hc         1 A1E       0.050922
     44 H18        -20.4330   -20.5580     2.1600 hc         1 A1E       0.050922
     45 H19        -19.2430   -23.3390     1.7950 hc         1 A1E       0.050922
     46 H20        -19.7580   -22.2640     0.4980 hc         1 A1E       0.050922
     47 H21        -18.1380   -22.9590     0.4690 hc         1 A1E       0.050922
     48 H22        -15.9490   -17.9710     4.7650 h5         1 A1E       0.044100
     49 H23        -12.9330   -20.9490     6.0170 hn         1 A1E       0.502000
     50 H24        -13.3100   -22.4620     5.2900 hn         1 A1E       0.502000
     51 C15        -10.4680   -30.3100     0.9340 c3         1 A1E      -0.088100
@<TRIPOS>BOND
     1     1    12 ar  
     2     1    19 ar  
     3     2    10 1   
     4     2    20 1   
     5     2    23 1   
     6     3     4 1   
     7     3    12 ar  
     8     3    20 ar  
     9     4     5 1   
    10     4    23 2   
    11     5     6 ar  
    12     5    13 ar  
    13     6     7 ar  
    14     6    27 1   
    15     7    21 ar  
    16     7    24 1   
    17     8    13 ar  
    18     8    21 ar  
    19     8    28 1   
    20     9    14 1   
    21     9    15 1   
    22     9    16 1   
    23     9    29 1   
    24    10    11 1   
    25    10    17 1   
    26    10    18 1   
    27    11    33 1   
    28    11    34 1   
    29    11    35 1   
    30    12    25 1   
    31    13    36 1   
    32    14    24 2   
    33    14    26 1   
    34    15    37 1   
    35    15    38 1   
    36    15    51 1   
    37    16    39 1   
    38    16    40 1   
    39    16    41 1   
    40    17    42 1   
    41    17    43 1   
    42    17    44 1   
    43    18    45 1   
    44    18    46 1   
    45    18    47 1   
    46    19    22 ar  
    47    19    48 1   
    48    20    22 ar  
    49    21    26 1   
    50    25    49 1   
    51    25    50 1   
    52    30    51 1   
    53    31    51 1   
    54    32    51 1   
@<TRIPOS>SUBSTRUCTURE
     1 A1E         1 TEMP              0 ****  ****    0 ROOT
