@<TRIPOS>MOLECULE
A1E
   34    35     1     0     0
SMALL
abcg2


@<TRIPOS>ATOM
      1 C01        141.2350   139.9110   135.9410 c3         1 A1E      -0.082433
      2 C02        142.2280   139.1180   135.0860 c3         1 A1E      -0.076300
      3 C03        142.1270   139.5850   133.6220 c3         1 A1E      -0.082433
      4 C04        141.8890   137.6180   135.1690 c3         1 A1E      -0.082433
      5 C05        143.6480   139.3330   135.5650 cc         1 A1E       0.325300
      6 C06        144.0560   140.0820   136.6290 cd         1 A1E      -0.259000
      7 C08        145.8350   139.0150   135.3780 cd         1 A1E       0.563300
      8 C11        147.3440   138.4170   133.5170 c          1 A1E       0.630700
      9 C13        146.5030   139.1270   132.5070 ca         1 A1E      -0.104600
     10 C14        146.1690   138.4460   131.3380 ca         1 A1E      -0.094000
     11 C15        145.4350   139.1140   130.3770 ca         1 A1E       0.158000
     12 C16        145.0420   140.4320   130.5180 ca         1 A1E      -0.129000
     13 C17        145.4040   141.1060   131.6800 ca         1 A1E      -0.093000
     14 C18        146.1240   140.4590   132.6750 ca         1 A1E      -0.088000
     15 F19        145.0900   138.4480   129.2470 f          1 A1E      -0.180000
     16 N09        144.6770   138.7170   134.8790 nc         1 A1E      -0.669000
     17 N10        147.0480   138.5910   134.8470 ns         1 A1E      -0.487400
     18 O12        148.3050   137.7360   133.1830 o          1 A1E      -0.564100
     19 S07        145.7780   140.0660   136.7630 ss         1 A1E      -0.070400
     20 H1         141.4410   140.9820   135.8980 hc         1 A1E       0.039700
     21 H2         140.2220   139.7450   135.5720 hc         1 A1E       0.039700
     22 H3         141.2690   139.5960   136.9860 hc         1 A1E       0.039700
     23 H4         142.3590   140.6490   133.5380 hc         1 A1E       0.039700
     24 H5         142.8210   139.0340   132.9870 hc         1 A1E       0.039700
     25 H6         141.1130   139.4230   133.2510 hc         1 A1E       0.039700
     26 H7         141.9460   137.2660   136.2010 hc         1 A1E       0.039700
     27 H8         140.8750   137.4460   134.8020 hc         1 A1E       0.039700
     28 H9         142.5790   137.0280   134.5650 hc         1 A1E       0.039700
     29 H10        143.4600   140.6220   137.3440 h4         1 A1E       0.164000
     30 H11        146.4650   137.4180   131.1850 ha         1 A1E       0.148000
     31 H12        144.4700   140.9150   129.7360 ha         1 A1E       0.134000
     32 H13        145.1170   142.1410   131.8090 ha         1 A1E       0.121000
     33 H14        146.3950   140.9920   133.5760 ha         1 A1E       0.122000
     34 H15        147.7500   138.2460   135.4900 hn         1 A1E       0.338500
@<TRIPOS>BOND
     1     1     2 1   
     2     1    20 1   
     3     1    21 1   
     4     1    22 1   
     5     2     3 1   
     6     2     4 1   
     7     2     5 1   
     8     3    23 1   
     9     3    24 1   
    10     3    25 1   
    11     4    26 1   
    12     4    27 1   
    13     4    28 1   
    14     5     6 2   
    15     5    16 1   
    16     6    19 1   
    17     6    29 1   
    18     7    16 2   
    19     7    17 1   
    20     7    19 1   
    21     8     9 1   
    22     8    17 1   
    23     8    18 2   
    24     9    10 ar  
    25     9    14 ar  
    26    10    11 ar  
    27    10    30 1   
    28    11    12 ar  
    29    11    15 1   
    30    12    13 ar  
    31    12    31 1   
    32    13    14 ar  
    33    13    32 1   
    34    14    33 1   
    35    17    34 1   
@<TRIPOS>SUBSTRUCTURE
     1 A1E         1 TEMP              0 ****  ****    0 ROOT
