@<TRIPOS>MOLECULE
A1E
   37    37     1     0     0
SMALL
abcg2


@<TRIPOS>ATOM
      1 O1         101.9600   108.1880   142.5230 os         1 A1E      -0.346100
      2 C1         108.0170   110.9200   138.5950 c3         1 A1E      -0.092100
      3 C2         107.7970   110.0970   139.8580 c3         1 A1E      -0.114400
      4 C3         106.3300   109.9340   140.2840 c3         1 A1E       0.159500
      5 C4         105.5250   109.2090   139.2080 c3         1 A1E      -0.015100
      6 C5         104.1950   108.6250   139.6180 ca         1 A1E      -0.061300
      7 C6         103.6920   108.7180   140.9120 ca         1 A1E      -0.144000
      8 C10        100.4420   106.7670   140.7050 c3         1 A1E      -0.033800
      9 C11        102.2370   107.3300   139.0340 ca         1 A1E      -0.162000
     10 C12        103.4430   107.9210   138.6710 ca         1 A1E       0.097100
     11 C13        103.2660   107.1380   136.4300 c3         1 A1E       0.150900
     12 C7         102.4860   108.1250   141.2740 ca         1 A1E       0.101100
     13 C8         102.6620   108.8980   143.5170 c3         1 A1E       0.148900
     14 C9         101.7420   107.4170   140.3310 ca         1 A1E      -0.074300
     15 N1         105.6680   111.1830   140.6440 n8         1 A1E      -0.997200
     16 O2         103.9640   107.8570   137.4210 os         1 A1E      -0.350100
     17 H1         109.0820   111.0330   138.3900 hc         1 A1E       0.033367
     18 H2         107.5670   110.4540   137.7180 hc         1 A1E       0.033367
     19 H3         107.6000   111.9240   138.6890 hc         1 A1E       0.033367
     20 H5         108.3410   110.5580   140.6880 hc         1 A1E       0.041700
     21 H6         106.3440   109.3090   141.1840 h1         1 A1E       0.057700
     22 H7         106.1450   108.4000   138.8090 hc         1 A1E       0.055200
     23 H8         105.3730   109.8900   138.3630 hc         1 A1E       0.055200
     24 H9         104.2530   109.2870   141.6390 ha         1 A1E       0.134000
     25 H10        100.5700   106.0400   141.5090 hc         1 A1E       0.041367
     26 H11         99.7080   107.4970   141.0520 hc         1 A1E       0.041367
     27 H12        100.0110   106.2460   139.8510 hc         1 A1E       0.041367
     28 H13        101.6520   106.7800   138.3080 ha         1 A1E       0.115000
     29 H14        103.8600   107.2050   135.5220 h1         1 A1E       0.036700
     30 H15        103.1470   106.0830   136.6920 h1         1 A1E       0.036700
     31 H16        102.2770   107.5610   136.2320 h1         1 A1E       0.036700
     32 H17        102.0690   108.8270   144.4270 h1         1 A1E       0.037700
     33 H18        103.6510   108.4720   143.7120 h1         1 A1E       0.037700
     34 H19        102.7830   109.9550   143.2630 h1         1 A1E       0.037700
     35 H20        106.2410   111.6930   141.3060 hn         1 A1E       0.393000
     36 H21        105.5910   111.7770   139.8270 hn         1 A1E       0.393000
     37 H4         108.2360   109.1030   139.7250 hc         1 A1E       0.041700
@<TRIPOS>BOND
     1     1    12 1   
     2     1    13 1   
     3     2     3 1   
     4     2    17 1   
     5     2    18 1   
     6     2    19 1   
     7     3     4 1   
     8     3    20 1   
     9     3    37 1   
    10     4     5 1   
    11     4    15 1   
    12     4    21 1   
    13     5     6 1   
    14     5    22 1   
    15     5    23 1   
    16     6     7 ar  
    17     6    10 ar  
    18     7    12 ar  
    19     7    24 1   
    20     8    14 1   
    21     8    25 1   
    22     8    26 1   
    23     8    27 1   
    24     9    10 ar  
    25     9    14 ar  
    26     9    28 1   
    27    10    16 1   
    28    11    16 1   
    29    11    29 1   
    30    11    30 1   
    31    11    31 1   
    32    12    14 ar  
    33    13    32 1   
    34    13    33 1   
    35    13    34 1   
    36    15    35 1   
    37    15    36 1   
@<TRIPOS>SUBSTRUCTURE
     1 A1E         1 TEMP              0 ****  ****    0 ROOT
