@<TRIPOS>MOLECULE
A1E
  100   100     1     0     0
SMALL
abcg2


@<TRIPOS>ATOM
      1 C2          75.9260    95.1050    79.5040 c6         1 A1E       0.004200
      2 C3          77.3380    95.4970    79.9400 ce         1 A1E      -0.087200
      3 C4          78.2630    95.9630    79.0790 c2         1 A1E      -0.090400
      4 C5          78.0040    96.0820    77.5990 c6         1 A1E      -0.043200
      5 C6          76.5360    96.0480    77.2330 c6         1 A1E       0.173300
      6 C7          75.8660    94.9160    77.9840 c6         1 A1E      -0.106400
      7 C8          77.5890    95.3590    81.3800 ce         1 A1E      -0.154000
      8 C9          78.6610    94.7770    81.9380 cf         1 A1E      -0.192000
      9 C10         78.9280    94.6470    83.3700 cf         1 A1E      -0.054200
     10 C11         79.8070    93.4860    83.7330 c3         1 A1E      -0.056900
     11 C12         77.2400   103.9780    96.7000 c          1 A1E       0.571100
     12 C13         78.4330    95.5340    84.2630 ce         1 A1E      -0.191000
     13 C14         78.6030    95.5060    85.6900 ce         1 A1E      -0.160000
     14 C15         78.1110    96.4680    86.5030 cf         1 A1E      -0.185000
     15 C16         78.2770    96.5230    87.9370 cf         1 A1E      -0.049200
     16 C17         79.0200    95.4080    88.6090 c3         1 A1E      -0.058900
     17 C18         77.7680    97.5970    88.5990 ce         1 A1E      -0.189000
     18 C19         77.8750    97.8790    89.9970 ce         1 A1E      -0.154000
     19 C20         77.3880    99.0100    90.5640 cf         1 A1E      -0.186000
     20 C21         77.5730    99.3120    91.9490 cf         1 A1E      -0.154000
     21 C22         77.2060   100.4470    92.6040 ce         1 A1E      -0.084200
     22 C23         76.4770   101.5880    91.9610 c3         1 A1E      -0.053900
     23 C24         77.5920   100.5690    93.9860 ce         1 A1E      -0.137000
     24 C25         77.4020   101.6570    94.7690 cf         1 A1E      -0.207000
     25 C26         77.9260   101.6950    96.1030 cf         1 A1E      -0.112000
     26 C27         77.9330   102.7240    96.9950 ce         1 A1E      -0.177200
     27 C29         78.5890   102.5430    98.3020 ce         1 A1E      -0.178000
     28 C30         79.5980   103.2840    98.7890 cf         1 A1E      -0.144000
     29 C31         80.2520   104.3600    98.0790 cf         1 A1E      -0.175000
     30 C32         81.2720   105.1320    98.5180 ce         1 A1E      -0.059200
     31 C33         81.8430   106.1780    97.6040 c3         1 A1E      -0.056900
     32 C34         81.8650   104.9900    99.8410 ce         1 A1E      -0.189000
     33 C35         82.8720   105.7390   100.3090 c2         1 A1E      -0.200200
     34 C36         83.4960   105.5720   101.6530 c3         1 A1E      -0.063200
     35 C37         84.9280   104.9860   101.6430 c3         1 A1E       0.195000
     36 C38         84.9060   103.5340   101.1740 c3         1 A1E      -0.103100
     37 C39         85.4810   105.0490   103.0640 c3         1 A1E      -0.103100
     38 C41         86.0220   105.4970    99.5220 c3         1 A1E       0.155900
     39 C43         79.6430    96.4120    79.4660 c3         1 A1E      -0.057900
     40 C44         75.5220    93.7750    80.1530 c3         1 A1E      -0.082100
     41 C45         74.9260    96.1840    79.9460 c3         1 A1E      -0.082100
     42 O13         77.1440   104.9120    97.4690 o          1 A1E      -0.510100
     43 O42         85.7860   105.8210   100.8690 os         1 A1E      -0.467000
     44 O46         76.4450    95.8960    75.8300 oh         1 A1E      -0.661000
     45 H3          78.5220    95.2600    77.0880 hc         1 A1E       0.060700
     46 H4          78.4650    97.0020    77.2270 hc         1 A1E       0.060700
     47 H5          76.0810    97.0010    77.5360 h1         1 A1E       0.032700
     48 H6          74.8180    94.8190    77.6790 hc         1 A1E       0.048200
     49 H7          76.3640    93.9780    77.7130 hc         1 A1E       0.048200
     50 H8          76.7950    95.7070    82.0380 ha         1 A1E       0.174000
     51 H9          79.3970    94.3160    81.2850 ha         1 A1E       0.175000
     52 H10         80.0710    93.4470    84.7870 hc         1 A1E       0.042700
     53 H11         79.3250    92.5410    83.4740 hc         1 A1E       0.042700
     54 H12         80.7370    93.5260    83.1610 hc         1 A1E       0.042700
     55 H13         76.7640   104.0370    95.7080 h4         1 A1E      -0.015800
     56 H14         77.8620    96.3760    83.8790 ha         1 A1E       0.172000
     57 H15         79.1580    94.6820    86.1240 ha         1 A1E       0.173000
     58 H16         77.5570    97.2880    86.0520 ha         1 A1E       0.172000
     59 H18         79.0780    95.5230    89.6880 hc         1 A1E       0.043367
     60 H19         78.5410    94.4480    88.4070 hc         1 A1E       0.043367
     61 H20         80.0410    95.3370    88.2300 hc         1 A1E       0.043367
     62 H21         77.2450    98.3440    88.0070 ha         1 A1E       0.171000
     63 H22         78.3940    97.1720    90.6360 ha         1 A1E       0.171000
     64 H23         76.8700    99.7230    89.9320 ha         1 A1E       0.176000
     65 H24         78.1020    98.5570    92.5270 ha         1 A1E       0.169000
     66 H26         75.5680   101.8320    92.5140 hc         1 A1E       0.044033
     67 H27         77.0930   102.4900    91.9510 hc         1 A1E       0.044033
     68 H28         76.1860   101.3790    90.9350 hc         1 A1E       0.044033
     69 H29         78.1130    99.7170    94.4150 ha         1 A1E       0.171000
     70 H30         76.8920   102.5220    94.3660 ha         1 A1E       0.181000
     71 H31         78.4210   100.7800    96.4200 ha         1 A1E       0.172000
     72 H32         78.2420   101.7070    98.9010 ha         1 A1E       0.176000
     73 H34         79.9680   103.0180    99.7720 ha         1 A1E       0.172000
     74 H35         79.9070   104.5410    97.0670 ha         1 A1E       0.171000
     75 H37         81.7530   107.1780    98.0340 hc         1 A1E       0.041367
     76 H38         82.9070   106.0100    97.4220 hc         1 A1E       0.041367
     77 H39         81.3350   106.1810    96.6410 hc         1 A1E       0.041367
     78 H40         81.4700   104.2160   100.4900 ha         1 A1E       0.169000
     79 H41         83.2770   106.5340    99.6910 ha         1 A1E       0.174000
     80 H42         83.5420   106.5480   102.1470 hc         1 A1E       0.052200
     81 H43         82.8710   104.9290   102.2790 hc         1 A1E       0.052200
     82 H44         85.9080   103.1020   101.1710 hc         1 A1E       0.042700
     83 H45         84.2960   102.9450   101.8600 hc         1 A1E       0.042700
     84 H46         84.4790   103.4150   100.1780 hc         1 A1E       0.042700
     85 H47         85.5410   106.0800   103.4160 hc         1 A1E       0.042700
     86 H48         84.8390   104.4980   103.7530 hc         1 A1E       0.042700
     87 H49         86.4790   104.6110   103.1130 hc         1 A1E       0.042700
     88 H50         86.6390   106.2960    99.1110 h1         1 A1E       0.026033
     89 H51         86.5680   104.5560    99.3980 h1         1 A1E       0.026033
     90 H52         85.1110   105.4370    98.9170 h1         1 A1E       0.026033
     91 H53         79.7640    96.5710    80.5340 hc         1 A1E       0.043700
     92 H54         80.3940    95.6800    79.1560 hc         1 A1E       0.043700
     93 H55         79.8910    97.3430    78.9510 hc         1 A1E       0.043700
     94 H56         75.4420    93.8550    81.2380 hc         1 A1E       0.035533
     95 H57         74.5470    93.4570    79.7750 hc         1 A1E       0.035533
     96 H58         76.2420    92.9880    79.9260 hc         1 A1E       0.035533
     97 H59         74.9320    96.3180    81.0290 hc         1 A1E       0.035533
     98 H60         75.1410    97.1530    79.4960 hc         1 A1E       0.035533
     99 H61         73.9110    95.8980    79.6610 hc         1 A1E       0.035533
    100 H62         75.5140    95.9330    75.5850 ho         1 A1E       0.442000
@<TRIPOS>BOND
     1     1     2 1   
     2     1     6 1   
     3     1    40 1   
     4     1    41 1   
     5     2     3 2   
     6     2     7 1   
     7     3     4 1   
     8     3    39 1   
     9     4     5 1   
    10     4    45 1   
    11     4    46 1   
    12     5     6 1   
    13     5    44 1   
    14     5    47 1   
    15     6    48 1   
    16     6    49 1   
    17     7     8 2   
    18     7    50 1   
    19     8     9 1   
    20     8    51 1   
    21     9    10 1   
    22     9    12 2   
    23    10    52 1   
    24    10    53 1   
    25    10    54 1   
    26    11    26 1   
    27    11    42 2   
    28    11    55 1   
    29    12    13 1   
    30    12    56 1   
    31    13    14 2   
    32    13    57 1   
    33    14    15 1   
    34    14    58 1   
    35    15    16 1   
    36    15    17 2   
    37    16    59 1   
    38    16    60 1   
    39    16    61 1   
    40    17    18 1   
    41    17    62 1   
    42    18    19 2   
    43    18    63 1   
    44    19    20 1   
    45    19    64 1   
    46    20    21 2   
    47    20    65 1   
    48    21    22 1   
    49    21    23 1   
    50    22    66 1   
    51    22    67 1   
    52    22    68 1   
    53    23    24 2   
    54    23    69 1   
    55    24    25 1   
    56    24    70 1   
    57    25    26 2   
    58    25    71 1   
    59    26    27 1   
    60    27    28 2   
    61    27    72 1   
    62    28    29 1   
    63    28    73 1   
    64    29    30 2   
    65    29    74 1   
    66    30    31 1   
    67    30    32 1   
    68    31    75 1   
    69    31    76 1   
    70    31    77 1   
    71    32    33 2   
    72    32    78 1   
    73    33    34 1   
    74    33    79 1   
    75    34    35 1   
    76    34    80 1   
    77    34    81 1   
    78    35    36 1   
    79    35    37 1   
    80    35    43 1   
    81    36    82 1   
    82    36    83 1   
    83    36    84 1   
    84    37    85 1   
    85    37    86 1   
    86    37    87 1   
    87    38    43 1   
    88    38    88 1   
    89    38    89 1   
    90    38    90 1   
    91    39    91 1   
    92    39    92 1   
    93    39    93 1   
    94    40    94 1   
    95    40    95 1   
    96    40    96 1   
    97    41    97 1   
    98    41    98 1   
    99    41    99 1   
   100    44   100 1   
@<TRIPOS>SUBSTRUCTURE
     1 A1E         1 TEMP              0 ****  ****    0 ROOT
