@<TRIPOS>MOLECULE
A1E
   50    53     1     0     0
SMALL
abcg2


@<TRIPOS>ATOM
      1 CAA         10.8180    -7.4650    28.3870 c3         1 A1E       0.221100
      2 CAB         11.9260    -9.6720    28.0160 c3         1 A1E       0.221100
      3 CAF         20.6350    -8.7990    16.2840 ca         1 A1E      -0.090000
      4 CAG         20.7460    -9.2400    17.6200 ca         1 A1E      -0.106000
      5 CAH         11.9260    -8.9050    23.8810 ca         1 A1E      -0.056000
      6 CAI         11.4170    -7.7250    23.3550 ca         1 A1E      -0.154000
      7 CAJ         11.9090    -9.1600    25.2400 ca         1 A1E      -0.188000
      8 CAK         16.7530    -6.1730    17.4640 ca         1 A1E      -0.089000
      9 CAL         19.6380    -7.9370    15.9160 ca         1 A1E      -0.105000
     10 CAM         19.8550    -8.8100    18.5640 ca         1 A1E      -0.087000
     11 CAN         17.6550    -6.5900    16.5270 ca         1 A1E      -0.097000
     12 CAO         10.8840    -7.0160    25.6100 ca         1 A1E      -0.206000
     13 CAP         17.8820    -7.4610    19.1660 ca         1 A1E      -0.021000
     14 CAV         15.9130    -6.1930    19.8600 c          1 A1E       0.621700
     15 CAW         10.9040    -6.7900    24.2420 ca         1 A1E       0.282000
     16 CAX         16.8600    -6.6170    18.8050 ca         1 A1E      -0.158600
     17 CAY         11.3750    -8.2200    26.1460 ca         1 A1E       0.360000
     18 CAZ         13.6840    -5.4220    20.3020 cc         1 A1E       0.499300
     19 CBA         12.2570    -4.7660    22.0140 cc         1 A1E       0.113300
     20 CBB         18.7010    -7.4790    16.8690 ca         1 A1E      -0.015000
     21 CBC         18.8130    -7.9200    18.2130 ca         1 A1E      -0.054000
     22 NAQ         12.4910    -5.1150    19.8730 nd         1 A1E      -0.408000
     23 NAR         11.6780    -4.7410    20.8660 nd         1 A1E      -0.184000
     24 NBD         11.3460    -8.4610    27.4870 nh         1 A1E      -0.832400
     25 OAC         16.1910    -6.1730    21.0440 o          1 A1E      -0.566100
     26 SAU         13.9030    -5.2680    22.0050 ss         1 A1E      -0.005800
     27 SBE         11.4290    -4.3080    23.5070 sy         1 A1E       1.121200
     28 H1          10.8590    -7.8420    29.4050 h1         1 A1E       0.037367
     29 H2          11.3870    -6.5300    28.3570 h1         1 A1E       0.037367
     30 H3           9.7740    -7.2270    28.1670 h1         1 A1E       0.037367
     31 H4          11.8340    -9.6710    29.0990 h1         1 A1E       0.037367
     32 H5          11.4210   -10.5680    27.6440 h1         1 A1E       0.037367
     33 H6          12.9890    -9.7640    27.7750 h1         1 A1E       0.037367
     34 H8          21.5410    -9.9210    17.8930 ha         1 A1E       0.119000
     35 H9          12.3360    -9.6530    23.2140 ha         1 A1E       0.113000
     36 H10         11.4000    -7.5480    22.2880 ha         1 A1E       0.129000
     37 H11         12.3100   -10.0990    25.5940 ha         1 A1E       0.115000
     38 H12         15.9820    -5.4730    17.1680 ha         1 A1E       0.118000
     39 H13         19.5540    -7.5990    14.8900 ha         1 A1E       0.119000
     40 H14         19.9360    -9.1460    19.5910 ha         1 A1E       0.120000
     41 H15         17.5760    -6.2370    15.5070 ha         1 A1E       0.122000
     42 H16         10.4830    -6.2440    26.2510 ha         1 A1E       0.115000
     43 H17         17.9750    -7.8000    20.1910 ha         1 A1E       0.137000
     44 NAT         10.3820    -5.5660    23.7230 nu         1 A1E      -0.900100
     45 NAS         14.6600    -5.8270    19.4440 ns         1 A1E      -0.461400
     46 OAD         12.4810    -4.2880    24.5060 o          1 A1E      -0.528000
     47 OAE         10.6230    -3.1330    23.2550 o          1 A1E      -0.528000
     48 H7          21.3480    -9.1470    15.5470 ha         1 A1E       0.118000
     49 H18         14.3770    -5.9280    18.4780 hn         1 A1E       0.352500
     50 H19          9.5090    -5.2460    24.1340 hn         1 A1E       0.501000
@<TRIPOS>BOND
     1     1    24 1   
     2     1    28 1   
     3     1    29 1   
     4     1    30 1   
     5     2    24 1   
     6     2    31 1   
     7     2    32 1   
     8     2    33 1   
     9     3     4 ar  
    10     3     9 ar  
    11     3    48 1   
    12     4    10 ar  
    13     4    34 1   
    14     5     6 ar  
    15     5     7 ar  
    16     5    35 1   
    17     6    15 ar  
    18     6    36 1   
    19     7    17 ar  
    20     7    37 1   
    21     8    11 ar  
    22     8    16 ar  
    23     8    38 1   
    24     9    20 ar  
    25     9    39 1   
    26    10    21 ar  
    27    10    40 1   
    28    11    20 ar  
    29    11    41 1   
    30    12    15 ar  
    31    12    17 ar  
    32    12    42 1   
    33    13    16 ar  
    34    13    21 ar  
    35    13    43 1   
    36    14    16 1   
    37    14    25 2   
    38    14    45 1   
    39    15    44 1   
    40    17    24 1   
    41    18    22 2   
    42    18    26 1   
    43    18    45 1   
    44    19    23 2   
    45    19    26 1   
    46    19    27 1   
    47    20    21 ar  
    48    22    23 1   
    49    27    44 1   
    50    27    46 2   
    51    27    47 2   
    52    44    50 1   
    53    45    49 1   
@<TRIPOS>SUBSTRUCTURE
     1 A1E         1 TEMP              0 ****  ****    0 ROOT
