@<TRIPOS>MOLECULE
A1E
   51    53     1     0     0
SMALL
abcg2


@<TRIPOS>ATOM
      1 C4          61.2040    -9.7290   -21.7080 cc         1 A1E       0.502800
      2 C14         51.4920   -15.1250   -24.7750 c          1 A1E       0.615100
      3 C5          57.7930   -11.2480   -23.3830 ca         1 A1E      -0.035000
      4 C6          57.0430   -12.1650   -22.6690 cp         1 A1E      -0.044000
      5 C11         54.2140   -14.5170   -23.5200 ca         1 A1E      -0.177000
      6 C7          57.4980   -12.5540   -21.3950 ca         1 A1E      -0.068000
      7 C8          58.6530   -12.0370   -20.8580 ca         1 A1E      -0.102000
      8 C9          55.7920   -12.7160   -23.2150 cp         1 A1E      -0.121000
      9 C10         55.4030   -14.0380   -23.0060 ca         1 A1E      -0.044000
     10 C12         53.4170   -13.6330   -24.2520 ca         1 A1E       0.482900
     11 C13         54.9180   -11.9330   -23.9640 ca         1 A1E       0.385900
     12 N1          60.5510   -10.5860   -21.0150 nd         1 A1E      -0.622100
     13 N2          60.8740    -9.2870   -22.9530 n          1 A1E      -0.336300
     14 C3          59.4070   -11.1000   -21.5750 ca         1 A1E       0.182400
     15 N3          53.7750   -12.3710   -24.4650 nb         1 A1E      -0.737000
     16 C1          59.7400    -9.7380   -23.6080 c          1 A1E       0.573600
     17 C15         50.1310   -15.0450   -25.4240 c3         1 A1E      -0.162400
     18 C16         49.0750   -14.5550   -24.4290 c3         1 A1E      -0.074400
     19 C17         47.6810   -14.5250   -25.0410 c3         1 A1E      -0.075400
     20 C18         46.6240   -14.0420   -24.0570 c3         1 A1E      -0.089100
     21 C19         61.7020    -8.2590   -23.5840 c3         1 A1E       0.092000
     22 C2          58.9650   -10.7120   -22.8460 ca         1 A1E      -0.201600
     23 C20         61.1660    -6.8540   -23.3450 c3         1 A1E      -0.096400
     24 C21         62.0620    -5.8060   -23.9870 c3         1 A1E      -0.089100
     25 N4          52.1940   -13.9550   -24.8230 ns         1 A1E      -0.322900
     26 O1          51.8980   -16.1300   -24.2240 o          1 A1E      -0.574100
     27 O2          59.4440    -9.3350   -24.7180 o          1 A1E      -0.534000
     28 H1          62.1110    -9.2990   -21.2960 h5         1 A1E       0.046800
     29 H2          57.4880   -10.9450   -24.3770 ha         1 A1E       0.138000
     30 H3          53.9230   -15.5410   -23.3620 ha         1 A1E       0.158000
     31 H4          56.9180   -13.2590   -20.8120 ha         1 A1E       0.119000
     32 H5          58.9860   -12.3370   -19.8730 ha         1 A1E       0.135000
     33 H6          56.0390   -14.7150   -22.4480 ha         1 A1E       0.122000
     34 H7          55.1430   -10.8880   -24.1510 h4         1 A1E       0.024100
     35 H8          50.1500   -14.3810   -26.2930 hc         1 A1E       0.068200
     36 H9          49.8670   -16.0420   -25.7810 hc         1 A1E       0.068200
     37 H10         49.0730   -15.2070   -23.5500 hc         1 A1E       0.049700
     38 H11         49.3390   -13.5550   -24.0740 hc         1 A1E       0.049700
     39 H12         47.6870   -13.8780   -25.9230 hc         1 A1E       0.039200
     40 H13         47.4220   -15.5260   -25.3990 hc         1 A1E       0.039200
     41 H14         45.6350   -14.0170   -24.5150 hc         1 A1E       0.034700
     42 H15         46.5700   -14.6960   -23.1860 hc         1 A1E       0.034700
     43 H16         46.8490   -13.0350   -23.7000 hc         1 A1E       0.034700
     44 H17         61.7700    -8.4740   -24.6490 h1         1 A1E       0.062700
     45 H18         62.7080    -8.3540   -23.1740 h1         1 A1E       0.062700
     46 H19         61.0960    -6.6780   -22.2680 hc         1 A1E       0.052700
     47 H20         60.1530    -6.7730   -23.7440 hc         1 A1E       0.052700
     48 H21         61.6780    -4.8030   -23.8070 hc         1 A1E       0.037367
     49 H22         63.0760    -5.8510   -23.5860 hc         1 A1E       0.037367
     50 H23         62.1260    -5.9470   -25.0670 hc         1 A1E       0.037367
     51 H24         51.7660   -13.1800   -25.3100 hn         1 A1E       0.167000
@<TRIPOS>BOND
     1     1    12 2   
     2     1    13 1   
     3     1    28 1   
     4     2    17 1   
     5     2    25 1   
     6     2    26 2   
     7     3     4 ar  
     8     3    22 ar  
     9     3    29 1   
    10     4     6 ar  
    11     4     8 1   
    12     5     9 ar  
    13     5    10 ar  
    14     5    30 1   
    15     6     7 ar  
    16     6    31 1   
    17     7    14 ar  
    18     7    32 1   
    19     8     9 ar  
    20     8    11 ar  
    21     9    33 1   
    22    10    15 ar  
    23    10    25 1   
    24    11    15 ar  
    25    11    34 1   
    26    12    14 1   
    27    13    16 1   
    28    13    21 1   
    29    14    22 ar  
    30    16    22 1   
    31    16    27 2   
    32    17    18 1   
    33    17    35 1   
    34    17    36 1   
    35    18    19 1   
    36    18    37 1   
    37    18    38 1   
    38    19    20 1   
    39    19    39 1   
    40    19    40 1   
    41    20    41 1   
    42    20    42 1   
    43    20    43 1   
    44    21    23 1   
    45    21    44 1   
    46    21    45 1   
    47    23    24 1   
    48    23    46 1   
    49    23    47 1   
    50    24    48 1   
    51    24    49 1   
    52    24    50 1   
    53    25    51 1   
@<TRIPOS>SUBSTRUCTURE
     1 A1E         1 TEMP              0 ****  ****    0 ROOT
