@<TRIPOS>MOLECULE
A1E
   64    69     1     0     0
SMALL
abcg2


@<TRIPOS>ATOM
      1 C21        166.3340    18.9050  -101.2550 c3         1 A1E      -0.139400
      2 C19        165.8650    18.9870   -99.8350 ca         1 A1E       0.300300
      3 N5         164.5970    18.6580   -99.5670 nb         1 A1E      -0.643000
      4 C18        164.1960    18.7330   -98.2990 ca         1 A1E       0.299900
      5 C17        165.0430    19.1360   -97.2710 ca         1 A1E       0.264300
      6 N4         166.3110    19.4630   -97.5340 nb         1 A1E      -0.611000
      7 C20        166.7120    19.3900   -98.7990 ca         1 A1E       0.287900
      8 C16        164.5700    19.2120   -95.8390 c3         1 A1E       0.066700
      9 N3         165.3410    18.3540   -94.9650 ns         1 A1E      -0.492900
     10 C15        166.2330    18.8140   -94.0710 c          1 A1E       0.635300
     11 O2         166.4200    20.0260   -93.8650 o          1 A1E      -0.650100
     12 C8         166.9960    17.7950   -93.3150 cc         1 A1E      -0.356400
     13 C9         166.8410    16.3750   -93.5250 c          1 A1E       0.625900
     14 O1         166.0410    15.8760   -94.3520 o          1 A1E      -0.618100
     15 C10        167.6850    15.5200   -92.7120 ca         1 A1E      -0.289600
     16 C11        167.6430    14.1200   -92.8530 ca         1 A1E       0.040000
     17 C12        168.4440    13.3100   -92.1040 ca         1 A1E      -0.262000
     18 C13        169.3270    13.9120   -91.1620 ca         1 A1E       0.682900
     19 N2         169.3770    15.2480   -91.0240 nb         1 A1E      -0.815000
     20 C14        168.5920    16.0150   -91.7650 ca         1 A1E       0.542500
     21 N1         168.6870    17.4090   -91.5980 na         1 A1E      -0.111200
     22 C7         167.9060    18.2430   -92.3700 cd         1 A1E       0.168500
     23 S1         168.2010    19.9230   -92.0170 ss         1 A1E       0.227400
     24 C4         169.3850    19.4790   -90.8110 ca         1 A1E      -0.240000
     25 C5         169.5410    18.0960   -90.6940 ca         1 A1E       0.004800
     26 C6         170.4470    17.5840   -89.7670 ca         1 A1E      -0.088000
     27 C1         171.1770    18.4710   -88.9850 ca         1 A1E      -0.098000
     28 C2         171.0190    19.8510   -89.1090 ca         1 A1E      -0.111000
     29 C3         170.1160    20.3650   -90.0280 ca         1 A1E      -0.057000
     30 N6         170.1500    13.1770   -90.3790 nh         1 A1E      -0.770300
     31 C26        170.3160    11.7330   -90.5520 c3         1 A1E       0.225800
     32 C25        171.3760    11.3740   -91.5910 c3         1 A1E      -0.144400
     33 C24        172.7470    12.0380   -91.3600 c3         1 A1E       0.195800
     34 N7         172.8100    13.4870   -91.5140 n3         1 A1E      -0.768600
     35 C27        172.3690    13.9780   -92.8100 c3         1 A1E       0.178100
     36 C23        172.4150    14.2940   -90.3670 c3         1 A1E       0.170800
     37 C22        171.1800    13.8150   -89.5680 c3         1 A1E       0.191800
     38 H13        165.7300    19.5550  -101.8910 hc         1 A1E       0.053367
     39 H14        167.3790    19.2020  -101.3440 hc         1 A1E       0.053367
     40 H12        166.2260    17.8860  -101.6310 hc         1 A1E       0.053367
     41 H11        163.1670    18.4610   -98.0870 h4         1 A1E       0.027100
     42 H10        167.7420    19.6570   -99.0090 h4         1 A1E       0.028100
     43 H9         164.6680    20.2350   -95.4770 h1         1 A1E       0.070200
     44 H8         163.5170    18.9320   -95.7890 h1         1 A1E       0.070200
     45 H7         165.2980    17.3390   -95.0580 hn         1 A1E       0.362500
     46 H6         166.9640    13.7010   -93.5820 ha         1 A1E       0.145000
     47 H5         168.4140    12.2420   -92.2420 ha         1 A1E       0.130000
     48 H4         170.5740    16.5250   -89.6650 ha         1 A1E       0.151000
     49 H1         171.8810    18.0710   -88.2670 ha         1 A1E       0.117000
     50 H2         171.5990    20.5230   -88.4900 ha         1 A1E       0.120000
     51 H3         169.9770    21.4330   -90.1390 ha         1 A1E       0.128000
     52 H24        170.6040    11.3340   -89.5790 h1         1 A1E       0.057200
     53 H23        169.3600    11.2790   -90.8030 h1         1 A1E       0.057200
     54 H21        171.5120    10.2890   -91.5760 hc         1 A1E       0.054700
     55 H22        171.0140    11.6300   -92.5890 hc         1 A1E       0.054700
     56 H19        173.1130    11.7870   -90.3610 h1         1 A1E       0.049700
     57 H20        173.4500    11.5960   -92.0730 h1         1 A1E       0.049700
     58 H25        172.8660    13.4030   -93.5960 h1         1 A1E       0.031367
     59 H26        171.2870    13.9140   -92.9880 h1         1 A1E       0.031367
     60 H27        172.6610    15.0230   -92.9210 h1         1 A1E       0.031367
     61 H18        172.2430    15.3070   -90.7290 h1         1 A1E       0.055700
     62 H17        173.2410    14.3470   -89.6480 h1         1 A1E       0.055700
     63 H15        170.7540    14.6490   -89.0140 h1         1 A1E       0.058700
     64 H16        171.4920    13.0710   -88.8360 h1         1 A1E       0.058700
@<TRIPOS>BOND
     1     1     2 1   
     2     1    38 1   
     3     1    39 1   
     4     1    40 1   
     5     2     3 ar  
     6     2     7 ar  
     7     3     4 ar  
     8     4     5 ar  
     9     4    41 1   
    10     5     6 ar  
    11     5     8 1   
    12     6     7 ar  
    13     7    42 1   
    14     8     9 1   
    15     8    43 1   
    16     8    44 1   
    17     9    10 1   
    18     9    45 1   
    19    10    11 2   
    20    10    12 1   
    21    12    13 1   
    22    12    22 2   
    23    13    14 2   
    24    13    15 1   
    25    15    16 ar  
    26    15    20 ar  
    27    16    17 ar  
    28    16    46 1   
    29    17    18 ar  
    30    17    47 1   
    31    18    19 ar  
    32    18    30 1   
    33    19    20 ar  
    34    20    21 1   
    35    21    22 1   
    36    21    25 1   
    37    22    23 1   
    38    23    24 1   
    39    24    25 ar  
    40    24    29 ar  
    41    25    26 ar  
    42    26    27 ar  
    43    26    48 1   
    44    27    28 ar  
    45    27    49 1   
    46    28    29 ar  
    47    28    50 1   
    48    29    51 1   
    49    30    31 1   
    50    30    37 1   
    51    31    32 1   
    52    31    52 1   
    53    31    53 1   
    54    32    33 1   
    55    32    54 1   
    56    32    55 1   
    57    33    34 1   
    58    33    56 1   
    59    33    57 1   
    60    34    35 1   
    61    34    36 1   
    62    35    58 1   
    63    35    59 1   
    64    35    60 1   
    65    36    37 1   
    66    36    61 1   
    67    36    62 1   
    68    37    63 1   
    69    37    64 1   
@<TRIPOS>SUBSTRUCTURE
     1 A1E         1 TEMP              0 ****  ****    0 ROOT
