@<TRIPOS>MOLECULE
A1E
   76    82     1     0     0
SMALL
abcg2


@<TRIPOS>ATOM
      1 C4          31.8490    48.8870    -0.4150 ca         1 A1E      -0.032000
      2 C5          33.1930    48.8060    -0.1000 ca         1 A1E       0.130000
      3 C7          33.6050    50.8970     1.0910 c6         1 A1E       0.181800
      4 C8          34.2220    52.2620     0.7980 c6         1 A1E       0.170800
      5 C13         35.7350    48.4570     0.8190 c6         1 A1E       0.121600
      6 C15         33.7420    47.5200     0.0220 ca         1 A1E       0.156100
      7 C17         31.5870    46.4820    -0.4360 ca         1 A1E       0.380000
      8 C20         27.9960    49.6490    -1.7090 cx         1 A1E       0.118700
      9 C21         27.0140    49.0250    -2.6550 cx         1 A1E      -0.123900
     10 C22         27.6830    50.3100    -3.0200 cx         1 A1E      -0.123900
     11 C24         28.2000    51.3920     0.1320 ca         1 A1E       0.022000
     12 C26         28.4730    53.0410     1.9110 ca         1 A1E      -0.089000
     13 C28         29.9330    53.0970     0.0090 ca         1 A1E      -0.103000
     14 C11         36.1830    50.9110     0.5240 c6         1 A1E       0.172800
     15 C12         35.4080    49.6980     0.0070 c6         1 A1E       0.163500
     16 C16         32.9540    46.3930    -0.1600 ca         1 A1E      -0.223000
     17 C23         27.5230    50.2680    -0.4310 ca         1 A1E      -0.119300
     18 C25         27.7920    51.9180     1.3900 ca         1 A1E      -0.080000
     19 C27         29.5280    53.6120     1.2510 ca         1 A1E      -0.129000
     20 C29         29.2770    52.0260    -0.5350 ca         1 A1E      -0.115000
     21 C3          31.0280    47.7720    -0.5830 ca         1 A1E      -0.249600
     22 C30         26.4690    49.7420     0.2630 ca         1 A1E      -0.020000
     23 C31         26.0360    50.2570     1.4960 ca         1 A1E      -0.215000
     24 C32         26.6880    51.3170     2.0920 ca         1 A1E       0.344000
     25 C34         25.2010    51.3150     4.0770 c6         1 A1E       0.234500
     26 C35         25.3340    51.7730     5.5350 c6         1 A1E      -0.124900
     27 C36         23.9570    51.8280     6.2050 c6         1 A1E       0.157100
     28 C38         22.7240    51.1220     4.3370 c6         1 A1E       0.157100
     29 C39         23.8500    51.7870     3.5430 c6         1 A1E      -0.124900
     30 N18         30.8500    45.3290    -0.5220 nv         1 A1E      -1.079000
     31 N19         29.3010    49.0560    -1.6330 ns         1 A1E      -0.484900
     32 N33         26.3050    51.8370     3.3010 nu         1 A1E      -0.968200
     33 N6          33.9770    49.9640     0.0420 nh         1 A1E      -0.746400
     34 N9          35.5030    52.1210     0.1230 n3         1 A1E      -0.712600
     35 O1          28.7110    47.2300    -0.4430 o          1 A1E      -0.607100
     36 O14         35.0420    47.3240     0.3170 os         1 A1E      -0.331100
     37 O37         23.0930    50.8490     5.6760 os         1 A1E      -0.451000
     38 H1          31.4220    49.8790    -0.5080 ha         1 A1E       0.118000
     39 H2          32.5210    50.9960     1.1320 h1         1 A1E       0.040700
     40 H3          33.9190    50.5360     2.0810 h1         1 A1E       0.040700
     41 H4          34.3170    52.8030     1.7530 h1         1 A1E       0.037700
     42 H5          33.5540    52.8540     0.1640 h1         1 A1E       0.037700
     43 H6          35.7640    54.1720    -0.1230 h1         1 A1E       0.030700
     44 H7          36.5980    53.5280     1.2970 h1         1 A1E       0.030700
     45 H8          37.2260    53.2110    -0.3310 h1         1 A1E       0.030700
     46 H9          35.4700    48.6180     1.8720 h1         1 A1E       0.058200
     47 H10         36.7980    48.2170     0.7710 h1         1 A1E       0.058200
     48 H11         25.9630    49.0490    -2.3990 hc         1 A1E       0.078200
     49 H12         27.3280    48.1250    -3.1660 hc         1 A1E       0.078200
     50 H13         28.4450    50.2940    -3.7910 hc         1 A1E       0.078200
     51 H14         27.0990    51.2210    -2.9870 hc         1 A1E       0.078200
     52 H15         28.1600    53.4920     2.8440 ha         1 A1E       0.104000
     53 H16         30.7550    53.5550    -0.5270 ha         1 A1E       0.111000
     54 H17         36.3260    50.8480     1.6170 h1         1 A1E       0.034700
     55 H18         37.1820    50.8960     0.0840 h1         1 A1E       0.034700
     56 H19         35.6940    49.5200    -1.0360 h1         1 A1E       0.086700
     57 H20         33.4130    45.4170    -0.0500 ha         1 A1E       0.128000
     58 H21         30.0340    54.4700     1.6740 ha         1 A1E       0.110000
     59 H22         29.5830    51.6760    -1.5110 ha         1 A1E       0.110000
     60 H23         25.9440    48.8820    -0.1360 ha         1 A1E       0.120000
     61 H24         25.1980    49.7780     1.9830 ha         1 A1E       0.117000
     62 H25         25.2210    50.2170     4.0610 h1         1 A1E       0.056700
     63 H26         26.0070    51.1010     6.0720 hc         1 A1E       0.054950
     64 H27         25.7770    52.7720     5.5730 hc         1 A1E       0.054950
     65 H28         23.5220    52.8310     6.0930 h1         1 A1E       0.046200
     66 H29         24.0430    51.6400     7.2760 h1         1 A1E       0.046200
     67 H30         21.8250    51.7500     4.3060 h1         1 A1E       0.046200
     68 H31         22.4670    50.1600     3.8890 h1         1 A1E       0.046200
     69 H32         23.7280    51.5530     2.4830 hc         1 A1E       0.054950
     70 H33         23.8050    52.8760     3.6270 hc         1 A1E       0.054950
     71 H34         29.9200    45.3920    -0.8990 hn         1 A1E       0.473000
     72 H35         31.3480    44.4980    -0.7930 hn         1 A1E       0.473000
     73 H36         30.0680    49.5600    -2.0460 hn         1 A1E       0.317500
     74 H37         27.0300    52.2750     3.8440 hn         1 A1E       0.477000
     75 C10         36.3120    53.3080     0.2570 c3         1 A1E       0.158100
     76 C2          29.5850    47.9760    -0.8710 c          1 A1E       0.628700
@<TRIPOS>BOND
     1     1     2 ar  
     2     1    21 ar  
     3     1    38 1   
     4     2     6 ar  
     5     2    33 1   
     6     3     4 1   
     7     3    33 1   
     8     3    39 1   
     9     3    40 1   
    10     4    34 1   
    11     4    41 1   
    12     4    42 1   
    13     5    15 1   
    14     5    36 1   
    15     5    46 1   
    16     5    47 1   
    17     6    16 ar  
    18     6    36 1   
    19     7    16 ar  
    20     7    21 ar  
    21     7    30 1   
    22     8     9 1   
    23     8    10 1   
    24     8    17 1   
    25     8    31 1   
    26     9    10 1   
    27     9    48 1   
    28     9    49 1   
    29    10    50 1   
    30    10    51 1   
    31    11    17 ar  
    32    11    18 ar  
    33    11    20 ar  
    34    12    18 ar  
    35    12    19 ar  
    36    12    52 1   
    37    13    19 ar  
    38    13    20 ar  
    39    13    53 1   
    40    14    15 1   
    41    14    34 1   
    42    14    54 1   
    43    14    55 1   
    44    15    33 1   
    45    15    56 1   
    46    16    57 1   
    47    17    22 ar  
    48    18    24 ar  
    49    19    58 1   
    50    20    59 1   
    51    21    76 1   
    52    22    23 ar  
    53    22    60 1   
    54    23    24 ar  
    55    23    61 1   
    56    24    32 1   
    57    25    26 1   
    58    25    29 1   
    59    25    32 1   
    60    25    62 1   
    61    26    27 1   
    62    26    63 1   
    63    26    64 1   
    64    27    37 1   
    65    27    65 1   
    66    27    66 1   
    67    28    29 1   
    68    28    37 1   
    69    28    67 1   
    70    28    68 1   
    71    29    69 1   
    72    29    70 1   
    73    30    71 1   
    74    30    72 1   
    75    31    73 1   
    76    31    76 1   
    77    32    74 1   
    78    34    75 1   
    79    35    76 2   
    80    43    75 1   
    81    44    75 1   
    82    45    75 1   
@<TRIPOS>SUBSTRUCTURE
     1 A1E         1 TEMP              0 ****  ****    0 ROOT
