@<TRIPOS>MOLECULE
A1E
   52    56     1     0     0
SMALL
abcg2


@<TRIPOS>ATOM
      1 C10        -15.9080    17.8610    11.7540 ca         1 A1E      -0.072800
      2 C15        -22.6190    16.3560    14.4410 cc         1 A1E      -0.127000
      3 C20        -15.4780    16.3080     9.9820 ca         1 A1E      -0.192600
      4 C21        -14.6590    17.2720     9.4050 ca         1 A1E       0.360900
      5 C24        -15.6040    14.9360     9.3900 c          1 A1E       0.625700
      6 C01        -19.4250    18.2230    15.0550 cc         1 A1E      -0.023000
      7 C02        -20.3590    17.5840    14.2900 cd         1 A1E      -0.025000
      8 C03        -19.9380    17.1940    12.9640 cd         1 A1E       0.562300
      9 C06        -18.1330    18.4390    14.5430 cc         1 A1E      -0.131000
     10 C07        -16.5630    18.2470    12.9940 cc         1 A1E      -0.080300
     11 C08        -16.1090    18.9130    14.1150 cd         1 A1E      -0.035400
     12 C11        -21.7090    17.3440    14.7770 cd         1 A1E      -0.166000
     13 C12        -22.3730    18.0700    15.7890 cd         1 A1E       0.257900
     14 C18        -20.5750    16.3680    10.8220 c3         1 A1E       0.128600
     15 C19        -16.0910    16.6040    11.1870 ca         1 A1E      -0.001000
     16 C23        -15.0600    18.7490    11.0900 ca         1 A1E       0.360900
     17 C27        -17.3680    15.7580     7.8980 c3         1 A1E       0.102000
     18 C29        -19.7380    15.0930    10.6200 c3         1 A1E       0.137600
     19 C31        -18.7210    15.4200     8.5030 c3         1 A1E       0.125600
     20 N04        -18.7480    17.3630    12.4870 nc         1 A1E      -0.571800
     21 N05        -17.8670    17.9560    13.2890 na         1 A1E       0.267900
     22 N09        -17.0660    19.0250    15.0590 nd         1 A1E      -0.260600
     23 N13        -23.5660    17.5740    16.0400 nc         1 A1E      -0.520800
     24 N14        -23.6940    16.5350    15.2200 na         1 A1E       0.133800
     25 N22        -14.4410    18.4600     9.9560 nb         1 A1E      -0.671000
     26 N25        -16.3400    14.8030     8.2680 n          1 A1E      -0.390800
     27 O17        -20.8670    16.6440    12.1940 os         1 A1E      -0.451300
     28 O26        -15.0050    14.0080     9.9100 o          1 A1E      -0.580100
     29 O30        -18.5570    15.3110     9.8940 os         1 A1E      -0.442000
     30 H1         -22.5720    15.5460    13.7330 h4         1 A1E       0.161000
     31 H2         -14.1600    17.0740     8.4630 h4         1 A1E       0.025100
     32 H3         -15.4560    13.0240     7.5930 h1         1 A1E       0.043033
     33 H4         -17.0830    12.8140     8.2500 h1         1 A1E       0.043033
     34 H5         -16.8530    13.5800     6.6730 h1         1 A1E       0.043033
     35 H6         -19.6460    18.5580    16.0590 ha         1 A1E       0.153000
     36 H7         -15.1100    19.2940    14.2680 h4         1 A1E       0.234000
     37 H8         -22.0230    18.9430    16.3210 h4         1 A1E       0.042100
     38 H9         -25.0270    15.2810    16.2250 h1         1 A1E       0.058367
     39 H10        -25.7650    16.3590    15.0240 h1         1 A1E       0.058367
     40 H11        -24.8220    14.9570    14.4970 h1         1 A1E       0.058367
     41 H12        -20.0740    17.2270    10.3680 h1         1 A1E       0.070200
     42 H13        -21.5580    16.2680    10.3660 h1         1 A1E       0.070200
     43 H14        -16.7060    15.8650    11.6790 ha         1 A1E       0.143000
     44 H15        -14.8880    19.7390    11.4990 h4         1 A1E       0.024100
     45 H16        -17.0690    16.7590     8.2030 h1         1 A1E       0.066200
     46 H17        -17.4620    15.7750     6.8110 h1         1 A1E       0.066200
     47 H18        -20.3510    14.3260    10.1310 h1         1 A1E       0.057700
     48 H19        -19.4420    14.6880    11.5900 h1         1 A1E       0.057700
     49 H20        -19.4240    16.2160     8.2260 h1         1 A1E       0.028200
     50 H21        -19.1160    14.4840     8.0850 h1         1 A1E       0.028200
     51 C28        -16.4390    13.4820     7.6740 c3         1 A1E       0.080300
     52 C16        -24.8990    15.7390    15.2460 c3         1 A1E       0.071900
@<TRIPOS>BOND
     1     1    10 1   
     2     1    15 ar  
     3     1    16 ar  
     4     2    12 2   
     5     2    24 1   
     6     2    30 1   
     7     3     4 ar  
     8     3     5 1   
     9     3    15 ar  
    10     4    25 ar  
    11     4    31 1   
    12     5    26 1   
    13     5    28 2   
    14     6     7 2   
    15     6     9 1   
    16     6    35 1   
    17     7     8 1   
    18     7    12 1   
    19     8    20 2   
    20     8    27 1   
    21     9    21 1   
    22     9    22 2   
    23    10    11 2   
    24    10    21 1   
    25    11    22 1   
    26    11    36 1   
    27    12    13 1   
    28    13    23 2   
    29    13    37 1   
    30    14    18 1   
    31    14    27 1   
    32    14    41 1   
    33    14    42 1   
    34    15    43 1   
    35    16    25 ar  
    36    16    44 1   
    37    17    19 1   
    38    17    26 1   
    39    17    45 1   
    40    17    46 1   
    41    18    29 1   
    42    18    47 1   
    43    18    48 1   
    44    19    29 1   
    45    19    49 1   
    46    19    50 1   
    47    20    21 1   
    48    23    24 1   
    49    24    52 1   
    50    26    51 1   
    51    32    51 1   
    52    33    51 1   
    53    34    51 1   
    54    38    52 1   
    55    39    52 1   
    56    40    52 1   
@<TRIPOS>SUBSTRUCTURE
     1 A1E         1 TEMP              0 ****  ****    0 ROOT
