@<TRIPOS>MOLECULE
A1E
   21    21     1     0     0
SMALL
abcg2


@<TRIPOS>ATOM
      1 C10        -21.4370    -6.9230    18.1860 ca         1 A1E      -0.130000
      2 C02        -20.3980    -6.0950    18.5950 ca         1 A1E       0.086100
      3 C03        -19.9530    -5.1020    17.7300 ca         1 A1E      -0.130000
      4 C04        -20.5400    -4.9340    16.4830 ca         1 A1E      -0.139500
      5 C05        -21.6070    -5.7470    16.0550 ca         1 A1E       0.277000
      6 C07        -23.0500    -6.6210    14.2910 c3         1 A1E       0.197100
      7 C08        -21.5380    -4.7390    13.8330 c3         1 A1E       0.197100
      8 C09        -22.0270    -6.7580    16.9390 ca         1 A1E      -0.139500
      9 N06        -22.2300    -5.5450    14.8240 nh         1 A1E      -0.802400
     10 O01        -19.7780    -6.2210    19.8160 oh         1 A1E      -0.543100
     11 H1         -21.7880    -7.7130    18.8430 ha         1 A1E       0.117000
     12 H2         -19.1350    -4.4600    18.0340 ha         1 A1E       0.117000
     13 H3         -20.1550    -4.1540    15.8440 ha         1 A1E       0.113000
     14 H4         -23.8780    -6.8510    14.9610 h1         1 A1E       0.034867
     15 H5         -23.4720    -6.3010    13.3410 h1         1 A1E       0.034867
     16 H6         -22.4780    -7.5460    14.1250 h1         1 A1E       0.034867
     17 H7         -21.3690    -3.7270    14.2030 h1         1 A1E       0.034867
     18 H8         -20.5660    -5.1640    13.5430 h1         1 A1E       0.034867
     19 H9         -22.1620    -4.6660    12.9440 h1         1 A1E       0.034867
     20 H10        -22.8270    -7.4290    16.6640 ha         1 A1E       0.113000
     21 H11        -20.1830    -6.9440    20.3130 ho         1 A1E       0.457000
@<TRIPOS>BOND
     1     1     2 ar  
     2     1     8 ar  
     3     1    11 1   
     4     2     3 ar  
     5     2    10 1   
     6     3     4 ar  
     7     3    12 1   
     8     4     5 ar  
     9     4    13 1   
    10     5     8 ar  
    11     5     9 1   
    12     6     9 1   
    13     6    14 1   
    14     6    15 1   
    15     6    16 1   
    16     7     9 1   
    17     7    17 1   
    18     7    18 1   
    19     7    19 1   
    20     8    20 1   
    21    10    21 1   
@<TRIPOS>SUBSTRUCTURE
     1 A1E         1 TEMP              0 ****  ****    0 ROOT
