@<TRIPOS>MOLECULE
A1E
   44    45     1     0     0
SMALL
abcg2


@<TRIPOS>ATOM
      1 C10        -34.2870   -10.0200    18.7200 c5         1 A1E      -0.111400
      2 C13        -32.8740   -11.7560    19.5490 c5         1 A1E       0.094300
      3 C15        -31.5370   -12.0790    20.1880 c3         1 A1E       0.234600
      4 C02        -34.3520    -8.6130    21.4840 c          1 A1E       0.709400
      5 C04        -36.0340    -7.8180    22.9000 cc         1 A1E       0.751500
      6 C06        -36.9340    -8.8780    22.5380 cc         1 A1E      -0.426800
      7 C07        -36.4750    -9.7390    21.6010 cd         1 A1E      -0.017400
      8 C09        -34.8330   -10.6030    20.0350 c5         1 A1E       0.331700
      9 C11        -32.8490   -10.5190    18.6440 c5         1 A1E       0.162300
     10 C29        -38.2680    -9.0540    23.1890 c3         1 A1E       0.242800
     11 N03        -34.8130    -7.7200    22.3950 nd         1 A1E      -0.801100
     12 N05        -36.4240    -6.9000    23.8000 nv         1 A1E      -1.053200
     13 N08        -35.2360    -9.6310    21.0520 n          1 A1E      -0.299000
     14 O12        -32.4890   -10.8240    17.3000 oh         1 A1E      -0.764000
     15 O14        -33.8300   -11.4600    20.5720 os         1 A1E      -0.450000
     16 O16        -30.5580   -12.2060    19.1500 os         1 A1E      -0.606400
     17 O22        -28.8730   -16.6540    19.2450 o          1 A1E      -0.926500
     18 O23        -29.6510   -15.8120    21.5550 o          1 A1E      -0.926500
     19 O24        -27.2950   -15.3980    20.8420 os         1 A1E      -0.741800
     20 O26        -24.8900   -14.7460    21.0480 o          1 A1E      -0.891833
     21 O27        -25.9330   -14.8610    18.7160 o          1 A1E      -0.891833
     22 O28        -25.4820   -17.0130    20.0270 o          1 A1E      -0.891833
     23 O30        -39.0650    -7.8780    22.9610 oh         1 A1E      -0.686000
     24 P17        -30.1560   -13.6830    18.5710 p5         1 A1E       1.480800
     25 P21        -28.7860   -15.6370    20.3410 p5         1 A1E       1.574800
     26 P25        -25.7660   -15.5190    20.0750 p5         1 A1E       1.381900
     27 H102       -34.3650    -8.9370    18.6870 hc         1 A1E       0.044200
     28 H101       -34.8520   -10.4380    17.8860 hc         1 A1E       0.044200
     29 H131       -33.2110   -12.6140    18.9550 h1         1 A1E       0.090700
     30 H151       -31.5970   -12.9890    20.7870 h1         1 A1E       0.049200
     31 H152       -31.2290   -11.2510    20.8300 h1         1 A1E       0.049200
     32 H071       -37.0790   -10.5660    21.2490 h4         1 A1E       0.182000
     33 H091       -35.7310   -11.1900    19.8390 h2         1 A1E       0.023700
     34 H111       -32.1670    -9.7750    19.0570 h1         1 A1E       0.069700
     35 H291       -38.1430    -9.2040    24.2670 h1         1 A1E       0.015200
     36 H292       -38.7600    -9.9390    22.7770 h1         1 A1E       0.015200
     37 H051       -35.8150    -6.1170    23.9810 hn         1 A1E       0.474000
     38 H052       -37.4050    -6.8030    24.0100 hn         1 A1E       0.474000
     39 H121       -31.5930   -11.1900    17.3300 ho         1 A1E       0.570000
     40 H301       -39.8470    -7.9320    23.5260 ho         1 A1E       0.410000
     41 O01        -33.2160    -8.5600    21.0150 o          1 A1E      -0.519000
     42 O18        -29.4050   -13.4070    17.3090 o          1 A1E      -0.872500
     43 O19        -31.3640   -14.5630    18.5610 o          1 A1E      -0.872500
     44 O20        -29.1160   -14.1430    19.7230 os         1 A1E      -0.724800
@<TRIPOS>BOND
     1     1     8 1   
     2     1     9 1   
     3     1    27 1   
     4     1    28 1   
     5     2     3 1   
     6     2     9 1   
     7     2    15 1   
     8     2    29 1   
     9     3    16 1   
    10     3    30 1   
    11     3    31 1   
    12     4    11 1   
    13     4    13 1   
    14     4    41 2   
    15     5     6 1   
    16     5    11 2   
    17     5    12 1   
    18     6     7 2   
    19     6    10 1   
    20     7    13 1   
    21     7    32 1   
    22     8    13 1   
    23     8    15 1   
    24     8    33 1   
    25     9    14 1   
    26     9    34 1   
    27    10    23 1   
    28    10    35 1   
    29    10    36 1   
    30    12    37 1   
    31    12    38 1   
    32    14    39 1   
    33    16    24 1   
    34    17    25 1   
    35    18    25 1   
    36    19    25 1   
    37    19    26 1   
    38    20    26 1   
    39    21    26 1   
    40    22    26 1   
    41    23    40 1   
    42    24    42 1   
    43    24    43 1   
    44    24    44 1   
    45    25    44 1   
@<TRIPOS>SUBSTRUCTURE
     1 A1E         1 TEMP              0 ****  ****    0 ROOT
