@<TRIPOS>MOLECULE
A1E
   80    85     1     0     0
SMALL
abcg2


@<TRIPOS>ATOM
      1 C10         -8.7960    -8.4160    -6.3030 c3         1 A1E      -0.393100
      2 C13         -8.2510    -8.8790    -9.6700 c6         1 A1E       0.215300
      3 C20        -13.0050    -8.1190    -7.4950 c6         1 A1E       0.166800
      4 C22        -12.1810    -6.0720    -6.4800 c3         1 A1E       0.150500
      5 C28        -11.6210    -8.1160    -1.3600 c3         1 A1E       0.154600
      6 C01        -13.1700   -10.8850   -14.0020 ca         1 A1E       0.201900
      7 C03        -11.3890   -10.5970   -12.6250 ca         1 A1E       0.421900
      8 C05         -9.3570   -10.5810   -11.1530 c6         1 A1E       0.267500
      9 C06         -9.9340   -11.3540    -9.9400 c6         1 A1E      -0.092900
     10 C07         -9.8250   -10.5450    -8.6530 c6         1 A1E       0.215300
     11 C14         -9.2160    -9.0900   -10.8360 c6         1 A1E      -0.092900
     12 C16        -13.3540    -9.6170   -11.9950 ca         1 A1E       0.311900
     13 C18        -13.3550    -8.2370    -9.9530 c6         1 A1E       0.103700
     14 C19        -13.8700    -8.7150    -8.6000 c6         1 A1E      -0.084900
     15 C23        -12.6960    -6.4150    -5.1240 cc         1 A1E       0.198300
     16 C27        -13.0430    -8.0140    -1.9120 c3         1 A1E       0.138600
     17 C30        -13.7170    -9.3580    -2.1000 ca         1 A1E      -0.100300
     18 C31        -14.8160    -9.6890    -1.3110 ca         1 A1E      -0.083500
     19 C32        -15.4450   -10.9220    -1.4540 ca         1 A1E      -0.109500
     20 C33        -14.9800   -11.8350    -2.3940 ca         1 A1E      -0.096000
     21 C34        -13.8840   -11.5080    -3.1890 ca         1 A1E      -0.109500
     22 C35        -13.2550   -10.2790    -3.0410 ca         1 A1E      -0.083500
     23 C36        -12.1750    -7.2850    -4.1950 cd         1 A1E      -0.213000
     24 C37        -12.4460    -6.2060    -8.8530 c6         1 A1E       0.166800
     25 C38        -13.2890    -6.7140   -10.0160 c6         1 A1E      -0.084900
     26 C39        -15.4320    -8.5570   -11.3070 c          1 A1E       0.563200
     27 C41        -16.0590    -9.1300   -12.4810 cc         1 A1E      -0.311200
     28 C42        -15.3660    -9.8800   -13.3660 cd         1 A1E      -0.049200
     29 C43        -13.9880   -10.1380   -13.1450 ca         1 A1E      -0.300800
     30 N02        -11.8940   -11.1200   -13.7770 nb         1 A1E      -0.260000
     31 N04        -10.0880   -10.8550   -12.3870 nu         1 A1E      -0.918100
     32 N08         -8.5100    -9.8820    -8.6040 n3         1 A1E      -0.771500
     33 N15        -12.0710    -9.8600   -11.7440 nb         1 A1E      -0.318000
     34 N17        -14.0680    -8.8320   -11.1100 n          1 A1E      -0.366300
     35 N21        -12.9770    -6.6560    -7.5650 n3         1 A1E      -0.693600
     36 N24        -13.8360    -5.8870    -4.6020 nc         1 A1E      -0.330000
     37 N25        -14.0400    -6.3880    -3.4140 nd         1 A1E      -0.192800
     38 N26        -13.0340    -7.2380    -3.1540 na         1 A1E       0.116800
     39 O11         -6.5080    -9.0700    -7.3930 o          1 A1E      -0.539500
     40 O12         -7.9080   -10.8670    -6.3950 o          1 A1E      -0.539500
     41 O40        -16.0490    -7.8500   -10.5080 o          1 A1E      -0.531000
     42 S09         -7.8170    -9.6350    -7.1490 s6         1 A1E       1.242100
     43 H103        -8.3300    -8.2330    -5.3360 h1         1 A1E       0.097700
     44 H102        -8.8140    -7.5050    -6.8970 h1         1 A1E       0.097700
     45 H101        -9.8020    -8.8100    -6.1720 h1         1 A1E       0.097700
     46 H132        -7.2220    -9.0030   -10.0020 h1         1 A1E       0.056950
     47 H131        -8.3650    -7.8620    -9.2870 h1         1 A1E       0.056950
     48 H201       -13.4010    -8.4160    -6.5240 h1         1 A1E       0.027200
     49 H202       -11.9810    -8.5240    -7.5630 h1         1 A1E       0.027200
     50 H222       -11.1310    -6.3960    -6.5450 h1         1 A1E       0.040700
     51 H221       -12.1940    -4.9880    -6.6090 h1         1 A1E       0.040700
     52 H281       -11.0020    -8.7390    -2.0120 h1         1 A1E       0.033700
     53 H282       -11.1840    -7.1130    -1.3180 h1         1 A1E       0.033700
     54 H011       -13.5980   -11.3000   -14.9110 h4         1 A1E       0.027100
     55 H051        -8.3540   -10.9590   -11.3500 h1         1 A1E       0.061700
     56 H061       -10.9860   -11.5810   -10.1100 hc         1 A1E       0.066450
     57 H062        -9.4010   -12.3000    -9.8320 hc         1 A1E       0.066450
     58 H072       -10.6210    -9.7990    -8.6020 h1         1 A1E       0.056950
     59 H071        -9.9180   -11.1920    -7.7850 h1         1 A1E       0.056950
     60 H141        -8.8250    -8.5600   -11.7040 hc         1 A1E       0.066450
     61 H142       -10.1890    -8.6650   -10.6040 hc         1 A1E       0.066450
     62 H181       -12.3400    -8.6070   -10.0550 h1         1 A1E       0.073700
     63 H191       -14.9070    -8.4170    -8.4570 hc         1 A1E       0.068700
     64 H192       -13.8180    -9.8050    -8.5480 hc         1 A1E       0.068700
     65 H271       -13.6330    -7.4230    -1.2130 h1         1 A1E       0.104700
     66 H311       -15.1810    -8.9770    -0.5810 ha         1 A1E       0.111500
     67 H321       -16.2970   -11.1660    -0.8320 ha         1 A1E       0.116000
     68 H331       -15.4690   -12.7940    -2.5100 ha         1 A1E       0.116000
     69 H341       -13.5190   -12.2140    -3.9250 ha         1 A1E       0.116000
     70 H351       -12.4020   -10.0420    -3.6640 ha         1 A1E       0.111500
     71 H361       -11.2970    -7.9040    -4.2110 h4         1 A1E       0.158000
     72 H372       -11.4020    -6.5480    -8.9790 h1         1 A1E       0.027200
     73 H371       -12.4290    -5.1140    -8.8550 h1         1 A1E       0.027200
     74 H381       -12.8300    -6.4030   -10.9570 hc         1 A1E       0.068700
     75 H382       -14.2870    -6.2830    -9.9650 hc         1 A1E       0.068700
     76 H411       -17.1090    -8.9090   -12.6070 ha         1 A1E       0.214000
     77 H421       -15.8440   -10.2910   -14.2470 ha         1 A1E       0.190000
     78 H041        -9.6430   -11.4510   -13.0670 hn         1 A1E       0.514000
     79 H291       -10.8350    -8.8940     0.2490 ho         1 A1E       0.453000
     80 O29        -11.7240    -8.6880    -0.0630 oh         1 A1E      -0.653000
@<TRIPOS>BOND
     1     1    42 1   
     2     1    43 1   
     3     1    44 1   
     4     1    45 1   
     5     2    11 1   
     6     2    32 1   
     7     2    46 1   
     8     2    47 1   
     9     3    14 1   
    10     3    35 1   
    11     3    48 1   
    12     3    49 1   
    13     4    15 1   
    14     4    35 1   
    15     4    50 1   
    16     4    51 1   
    17     5    16 1   
    18     5    52 1   
    19     5    53 1   
    20     5    80 1   
    21     6    29 ar  
    22     6    30 ar  
    23     6    54 1   
    24     7    30 ar  
    25     7    31 1   
    26     7    33 ar  
    27     8     9 1   
    28     8    11 1   
    29     8    31 1   
    30     8    55 1   
    31     9    10 1   
    32     9    56 1   
    33     9    57 1   
    34    10    32 1   
    35    10    58 1   
    36    10    59 1   
    37    11    60 1   
    38    11    61 1   
    39    12    29 ar  
    40    12    33 ar  
    41    12    34 1   
    42    13    14 1   
    43    13    25 1   
    44    13    34 1   
    45    13    62 1   
    46    14    63 1   
    47    14    64 1   
    48    15    23 2   
    49    15    36 1   
    50    16    17 1   
    51    16    38 1   
    52    16    65 1   
    53    17    18 ar  
    54    17    22 ar  
    55    18    19 ar  
    56    18    66 1   
    57    19    20 ar  
    58    19    67 1   
    59    20    21 ar  
    60    20    68 1   
    61    21    22 ar  
    62    21    69 1   
    63    22    70 1   
    64    23    38 1   
    65    23    71 1   
    66    24    25 1   
    67    24    35 1   
    68    24    72 1   
    69    24    73 1   
    70    25    74 1   
    71    25    75 1   
    72    26    27 1   
    73    26    34 1   
    74    26    41 2   
    75    27    28 2   
    76    27    76 1   
    77    28    29 1   
    78    28    77 1   
    79    31    78 1   
    80    32    42 1   
    81    36    37 2   
    82    37    38 1   
    83    39    42 2   
    84    40    42 2   
    85    79    80 1   
@<TRIPOS>SUBSTRUCTURE
     1 A1E         1 TEMP              0 ****  ****    0 ROOT
