@<TRIPOS>MOLECULE
A1E
   34    37     1     0     0
SMALL
abcg2


@<TRIPOS>ATOM
      1 C05         18.9590   -11.3480    10.1300 c5         1 A1E      -0.056400
      2 C06         19.4140   -12.5180    11.0180 c5         1 A1E       0.224600
      3 C07         17.8980   -12.0110     9.2920 ca         1 A1E      -0.211300
      4 C08         20.1170   -10.8790     9.2530 c6         1 A1E       0.162600
      5 C09         20.8630   -12.4920    11.3750 ca         1 A1E      -0.201300
      6 C10         18.0740   -13.3930     9.3950 ca         1 A1E       0.159100
      7 C11         21.7050   -11.4840    10.8900 ca         1 A1E       0.182100
      8 C12         16.9360   -11.5150     8.4370 ca         1 A1E      -0.016000
      9 C13         21.4010   -13.4180    12.2700 ca         1 A1E      -0.011000
     10 C14         17.3180   -14.2930     8.6730 ca         1 A1E      -0.171000
     11 C15         23.0350   -11.4010    11.2950 ca         1 A1E      -0.178000
     12 C16         16.1430   -12.3960     7.6920 ca         1 A1E      -0.234000
     13 C17         16.3410   -13.7740     7.8090 ca         1 A1E       0.174100
     14 C18         22.7250   -13.3650    12.6700 ca         1 A1E      -0.235000
     15 C19         23.5420   -12.3410    12.1810 ca         1 A1E       0.173100
     16 C20         14.6130   -14.2540     6.2230 c3         1 A1E       0.148900
     17 O01         19.0740   -13.7380    10.2560 os         1 A1E      -0.336100
     18 O02         21.2660   -10.5200    10.0320 os         1 A1E      -0.342100
     19 O03         15.6210   -14.7050     7.1260 os         1 A1E      -0.347100
     20 O04         24.8510   -12.2220    12.5410 oh         1 A1E      -0.534100
     21 H1          18.5930   -10.5200    10.7380 hc         1 A1E       0.084700
     22 H2          18.8010   -12.5600    11.9220 h1         1 A1E       0.070700
     23 H3          19.8470    -9.9890     8.6880 h1         1 A1E       0.067200
     24 H4          20.4020   -11.6730     8.5560 h1         1 A1E       0.067200
     25 H5          16.7880   -10.4470     8.3330 ha         1 A1E       0.115000
     26 H6          20.7580   -14.1940    12.6670 ha         1 A1E       0.120000
     27 H7          17.4580   -15.3620     8.7600 ha         1 A1E       0.145000
     28 H8          23.6670   -10.6110    10.9110 ha         1 A1E       0.145000
     29 H9          15.3870   -12.0000     7.0320 ha         1 A1E       0.120000
     30 H10         23.1260   -14.0950    13.3630 ha         1 A1E       0.118000
     31 H11         14.1790   -15.1520     5.7900 h1         1 A1E       0.043367
     32 H12         13.8390   -13.6890     6.7490 h1         1 A1E       0.043367
     33 H13         15.0420   -13.6350     5.4320 h1         1 A1E       0.043367
     34 H14         25.0900   -12.9260    13.1590 ho         1 A1E       0.466000
@<TRIPOS>BOND
     1     1     2 1   
     2     1     3 1   
     3     1     4 1   
     4     1    21 1   
     5     2     5 1   
     6     2    17 1   
     7     2    22 1   
     8     3     6 ar  
     9     3     8 ar  
    10     4    18 1   
    11     4    23 1   
    12     4    24 1   
    13     5     7 ar  
    14     5     9 ar  
    15     6    10 ar  
    16     6    17 1   
    17     7    11 ar  
    18     7    18 1   
    19     8    12 ar  
    20     8    25 1   
    21     9    14 ar  
    22     9    26 1   
    23    10    13 ar  
    24    10    27 1   
    25    11    15 ar  
    26    11    28 1   
    27    12    13 ar  
    28    12    29 1   
    29    13    19 1   
    30    14    15 ar  
    31    14    30 1   
    32    15    20 1   
    33    16    19 1   
    34    16    31 1   
    35    16    32 1   
    36    16    33 1   
    37    20    34 1   
@<TRIPOS>SUBSTRUCTURE
     1 A1E         1 TEMP              0 ****  ****    0 ROOT
