@<TRIPOS>MOLECULE
A1E
   37    41     1     0     0
SMALL
abcg2


@<TRIPOS>ATOM
      1 C11        144.2700   177.3330   154.3900 ca         1 A1E      -0.194800
      2 C12        144.6480   177.6830   153.0940 ca         1 A1E       0.031000
      3 C13        144.1630   176.9960   152.0000 ca         1 A1E       0.096000
      4 O01        144.0990   181.5840   155.6230 o          1 A1E      -0.473000
      5 C02        144.6050   180.4890   155.5760 c          1 A1E       0.665700
      6 C03        146.0180   180.1070   155.4280 ca         1 A1E      -0.184600
      7 C04        146.1060   178.7260   155.4290 ca         1 A1E      -0.101300
      8 C05        147.3280   178.0880   155.3060 ca         1 A1E      -0.084000
      9 C06        148.4630   178.8840   155.1820 ca         1 A1E      -0.085000
     10 C07        148.3750   180.2810   155.1800 ca         1 A1E      -0.113000
     11 C08        147.1440   180.9120   155.3040 ca         1 A1E      -0.035000
     12 C09        144.7280   178.1290   155.5800 c5         1 A1E       0.357900
     13 O10        143.8640   179.3540   155.6570 os         1 A1E      -0.429100
     14 C15        143.2730   175.9230   152.1610 ca         1 A1E       0.240600
     15 O16        142.8390   175.2830   151.0620 oh         1 A1E      -0.503600
     16 C17        142.8900   175.5690   153.4580 ca         1 A1E       0.088000
     17 C19        143.3950   176.2650   154.5580 ca         1 A1E       0.229600
     18 O20        142.9930   175.8430   155.7890 os         1 A1E      -0.202200
     19 C21        143.6410   176.2900   156.9020 ca         1 A1E       0.229600
     20 C22        144.5320   177.3590   156.8570 ca         1 A1E      -0.194800
     21 C23        145.1790   177.7330   158.0330 ca         1 A1E       0.031000
     22 C24        144.9300   177.0720   159.2190 ca         1 A1E       0.096000
     23 C26        144.0140   176.0080   159.2770 ca         1 A1E       0.240600
     24 O27        143.7280   175.3370   160.4060 oh         1 A1E      -0.503600
     25 C28        143.3750   175.6180   158.0960 ca         1 A1E       0.088000
     26 I14        144.7720   177.5650   150.0630 i          1 A1E      -0.281000
     27 I18        141.5560   173.9660   153.7540 i          1 A1E      -0.252000
     28 I25        145.9530   177.6610   160.9710 i          1 A1E      -0.281000
     29 I29        142.0270   174.0060   158.1270 i          1 A1E      -0.252000
     30 H1         145.3260   178.5110   152.9470 ha         1 A1E       0.140500
     31 H2         147.4020   177.0080   155.3080 ha         1 A1E       0.132000
     32 H3         149.4340   178.4150   155.0860 ha         1 A1E       0.123000
     33 H4         149.2760   180.8710   155.0810 ha         1 A1E       0.125000
     34 H5         147.0600   181.9910   155.3060 ha         1 A1E       0.141000
     35 H6         142.2370   174.5580   151.3030 ho         1 A1E       0.487500
     36 H7         145.8790   178.5550   158.0160 ha         1 A1E       0.140500
     37 H8         144.2390   175.6960   161.1510 ho         1 A1E       0.487500
@<TRIPOS>BOND
     1     1     2 ar  
     2     1    12 1   
     3     1    17 ar  
     4     2     3 ar  
     5     2    30 1   
     6     3    14 ar  
     7     3    26 1   
     8     4     5 2   
     9     5     6 1   
    10     5    13 1   
    11     6     7 ar  
    12     6    11 ar  
    13     7     8 ar  
    14     7    12 1   
    15     8     9 ar  
    16     8    31 1   
    17     9    10 ar  
    18     9    32 1   
    19    10    11 ar  
    20    10    33 1   
    21    11    34 1   
    22    12    13 1   
    23    12    20 1   
    24    14    15 1   
    25    14    16 ar  
    26    15    35 1   
    27    16    17 ar  
    28    16    27 1   
    29    17    18 1   
    30    18    19 1   
    31    19    20 ar  
    32    19    25 ar  
    33    20    21 ar  
    34    21    22 ar  
    35    21    36 1   
    36    22    23 ar  
    37    22    28 1   
    38    23    24 1   
    39    23    25 ar  
    40    24    37 1   
    41    25    29 1   
@<TRIPOS>SUBSTRUCTURE
     1 A1E         1 TEMP              0 ****  ****    0 ROOT
