@<TRIPOS>MOLECULE
A1E
   47    47     1     0     0
SMALL
abcg2


@<TRIPOS>ATOM
      1 C4         132.9400   134.3700   135.9900 c3         1 A1E      -0.077400
      2 C5         132.3100   134.2740   134.6020 c3         1 A1E      -0.079400
      3 C6         132.3120   135.6380   133.8860 c3         1 A1E      -0.120700
      4 C7         132.2550   135.5270   132.3910 c2         1 A1E       0.372200
      5 C15        135.0090   134.9550   132.6670 c6         1 A1E       0.213300
      6 C17        137.3540   134.1620   132.9660 c6         1 A1E       0.171300
      7 C21        136.6390   137.5850   134.6190 c3         1 A1E       0.169600
      8 C1         135.7130   133.3980   137.5790 c3         1 A1E       0.050900
      9 S2         134.0470   133.0330   138.2060 ss         1 A1E      -0.476000
     10 C3         133.0990   133.0060   136.6490 c3         1 A1E       0.075600
     11 N8         131.1360   135.7400   131.8150 n2         1 A1E      -0.213700
     12 O9         131.2490   135.5910   130.4090 os         1 A1E      -0.446700
     13 S10        129.7710   135.7180   129.6370 s6         1 A1E       1.520300
     14 O11        129.2720   137.0460   129.9530 o          1 A1E      -0.702867
     15 O12        128.9650   134.6310   130.1680 o          1 A1E      -0.702867
     16 O13        130.2170   135.5400   128.2660 o          1 A1E      -0.702867
     17 S14        133.6890   135.1210   131.4280 ss         1 A1E      -0.217200
     18 C16        136.1640   134.1710   132.0190 c6         1 A1E       0.167300
     19 C18        137.6780   135.5510   133.5050 c6         1 A1E       0.104300
     20 C19        136.4220   136.1830   134.1060 c6         1 A1E       0.131300
     21 O20        135.4240   136.2420   133.0760 os         1 A1E      -0.420000
     22 O22        135.4890   137.9780   135.3670 oh         1 A1E      -0.711000
     23 O23        138.7100   135.3680   134.4750 oh         1 A1E      -0.733000
     24 O24        138.4710   133.6170   132.2760 oh         1 A1E      -0.647000
     25 O25        135.7950   132.8190   131.7880 oh         1 A1E      -0.714000
     26 H1         133.9210   134.8400   135.8920 hc         1 A1E       0.047700
     27 H2         132.3440   135.0230   136.6330 hc         1 A1E       0.047700
     28 H3         131.2850   133.9030   134.6670 hc         1 A1E       0.050700
     29 H4         132.8600   133.5390   134.0110 hc         1 A1E       0.050700
     30 H5         133.2070   136.1990   134.1560 hc         1 A1E       0.069200
     31 H6         131.4530   136.2290   134.2070 hc         1 A1E       0.069200
     32 H7         134.6460   134.3820   133.5200 h2         1 A1E       0.066700
     33 H8         137.0960   133.5240   133.8230 h1         1 A1E       0.054700
     34 H9         137.5310   137.5950   135.2520 h1         1 A1E       0.028200
     35 H10        136.8040   138.2570   133.7700 h1         1 A1E       0.028200
     36 H11        136.3900   133.3390   138.4300 h1         1 A1E       0.058700
     37 H12        136.0060   132.6570   136.8340 h1         1 A1E       0.058700
     38 H13        135.7680   134.3960   137.1490 h1         1 A1E       0.058700
     39 H14        132.1290   132.5810   136.9120 h1         1 A1E       0.068200
     40 H15        133.5940   132.3070   135.9710 h1         1 A1E       0.068200
     41 H16        136.4590   134.6620   131.0850 h1         1 A1E       0.066700
     42 H17        138.0360   136.1800   132.6840 h1         1 A1E       0.057700
     43 H18        136.0580   135.5540   134.9280 h1         1 A1E       0.060700
     44 H19        135.6230   138.8820   135.6750 ho         1 A1E       0.502000
     45 H20        139.2990   136.1320   134.4630 ho         1 A1E       0.505000
     46 H21        139.2290   133.6910   132.8710 ho         1 A1E       0.446000
     47 H22        135.1620   132.7860   131.0580 ho         1 A1E       0.528000
@<TRIPOS>BOND
     1     1     2 1   
     2     1    10 1   
     3     1    26 1   
     4     1    27 1   
     5     2     3 1   
     6     2    28 1   
     7     2    29 1   
     8     3     4 1   
     9     3    30 1   
    10     3    31 1   
    11     4    11 2   
    12     4    17 1   
    13     5    17 1   
    14     5    18 1   
    15     5    21 1   
    16     5    32 1   
    17     6    18 1   
    18     6    19 1   
    19     6    24 1   
    20     6    33 1   
    21     7    20 1   
    22     7    22 1   
    23     7    34 1   
    24     7    35 1   
    25     8     9 1   
    26     8    36 1   
    27     8    37 1   
    28     8    38 1   
    29     9    10 1   
    30    10    39 1   
    31    10    40 1   
    32    11    12 1   
    33    12    13 1   
    34    13    14 1   
    35    13    15 1   
    36    13    16 1   
    37    18    25 1   
    38    18    41 1   
    39    19    20 1   
    40    19    23 1   
    41    19    42 1   
    42    20    21 1   
    43    20    43 1   
    44    22    44 1   
    45    23    45 1   
    46    24    46 1   
    47    25    47 1   
@<TRIPOS>SUBSTRUCTURE
     1 A1E         1 TEMP              0 ****  ****    0 ROOT
