@<TRIPOS>MOLECULE
A1E
   26    27     1     0     0
SMALL
abcg2


@<TRIPOS>ATOM
      1 O01          1.3060     1.1420    24.4200 o          1 A1E      -0.615100
      2 C02          1.7980     2.2220    24.7530 c          1 A1E       0.651700
      3 N03          3.1090     2.4980    24.5860 nt         1 A1E      -0.601000
      4 C04          0.9920     3.3100    25.3330 cc         1 A1E      -0.272600
      5 C05          1.2330     4.6660    25.4210 cd         1 A1E       0.267900
      6 N06          0.1700     5.3060    25.9930 nd         1 A1E      -0.677000
      7 C07         -0.7100     4.3530    26.2540 cc         1 A1E       0.404400
      8 N08         -0.2750     3.1330    25.8670 na         1 A1E      -0.134500
      9 C09         -0.9930     1.8870    26.1110 c3         1 A1E       0.123900
     10 C10         -0.3720     1.0350    27.1940 ca         1 A1E      -0.106300
     11 C11         -0.5640    -0.3460    27.1620 ca         1 A1E      -0.093000
     12 C12         -0.0450    -1.1560    28.1650 ca         1 A1E      -0.109000
     13 C13          0.6810    -0.5930    29.2110 ca         1 A1E      -0.104000
     14 C14          0.8800     0.7830    29.2450 ca         1 A1E      -0.109000
     15 C15          0.3550     1.5930    28.2430 ca         1 A1E      -0.093000
     16 H031         3.7020     1.7980    24.1700 hn         1 A1E       0.319500
     17 H032         3.5380     3.3320    24.9500 hn         1 A1E       0.319500
     18 H051         2.1020     5.2050    25.0790 h4         1 A1E       0.036100
     19 H071        -1.6710     4.4870    26.7250 h5         1 A1E       0.059100
     20 H091        -2.0060     2.1750    26.3960 h1         1 A1E       0.078200
     21 H092        -1.0510     1.3250    25.1830 h1         1 A1E       0.078200
     22 H111        -1.1180    -0.7880    26.3420 ha         1 A1E       0.116500
     23 H121        -0.2000    -2.2270    28.1250 ha         1 A1E       0.114500
     24 H131         1.0920    -1.2230    29.9900 ha         1 A1E       0.114000
     25 H141         1.4470     1.2300    30.0530 ha         1 A1E       0.114500
     26 H151         0.5190     2.6630    28.2800 ha         1 A1E       0.116500
@<TRIPOS>BOND
     1     1     2 2   
     2     2     3 1   
     3     2     4 1   
     4     3    16 1   
     5     3    17 1   
     6     4     5 2   
     7     4     8 1   
     8     5     6 1   
     9     5    18 1   
    10     6     7 2   
    11     7     8 1   
    12     7    19 1   
    13     8     9 1   
    14     9    10 1   
    15     9    20 1   
    16     9    21 1   
    17    10    11 ar  
    18    10    15 ar  
    19    11    12 ar  
    20    11    22 1   
    21    12    13 ar  
    22    12    23 1   
    23    13    14 ar  
    24    13    24 1   
    25    14    15 ar  
    26    14    25 1   
    27    15    26 1   
@<TRIPOS>SUBSTRUCTURE
     1 A1E         1 TEMP              0 ****  ****    0 ROOT
