@<TRIPOS>MOLECULE
A1E
   42    44     1     0     0
SMALL
abcg2


@<TRIPOS>ATOM
      1 C10        -28.7620    32.2360    47.7680 c6         1 A1E      -0.071900
      2 C13        -28.4670    30.3660    49.7700 c6         1 A1E      -0.071400
      3 C15        -31.2950    34.5690    48.0440 cx         1 A1E      -0.123400
      4 C17        -30.4730    34.5130    50.4710 ca         1 A1E      -0.112500
      5 C20        -28.3880    36.2120    49.7790 ca         1 A1E      -0.133000
      6 C21        -29.3320    35.8330    48.8330 ca         1 A1E      -0.112500
      7 C03        -32.7340    34.0980    48.1820 cx         1 A1E      -0.239000
      8 C04        -33.7020    34.5330    47.0680 c          1 A1E       0.749000
      9 C07        -31.6670    33.1280    47.7290 cx         1 A1E      -0.107700
     10 C08        -31.1890    31.9320    48.5140 c3         1 A1E      -0.030400
     11 C09        -29.9490    31.2600    47.9080 c6         1 A1E      -0.058700
     12 C11        -27.4290    31.4910    47.7280 c6         1 A1E      -0.071400
     13 C12        -27.1590    30.7890    49.0740 c6         1 A1E      -0.068400
     14 C14        -29.5420    30.0200    48.7400 c6         1 A1E      -0.071900
     15 C16        -30.3880    34.9670    49.1480 ca         1 A1E       0.045700
     16 C18        -29.5290    34.8880    51.4210 ca         1 A1E      -0.133000
     17 C19        -28.4780    35.7340    51.0830 ca         1 A1E      -0.168000
     18 O01        -33.6390    35.1350    50.1110 o          1 A1E      -0.755750
     19 O05        -33.2100    34.9410    45.9840 o          1 A1E      -0.755750
     20 O06        -34.9320    34.4070    47.3080 o          1 A1E      -0.755750
     21 O22        -33.7030    32.9010    50.0270 o          1 A1E      -0.755750
     22 H102       -28.8920    32.8540    46.8770 hc         1 A1E       0.039950
     23 H101       -28.7550    32.9260    48.6150 hc         1 A1E       0.039950
     24 H131       -28.8310    31.1810    50.4020 hc         1 A1E       0.025950
     25 H132       -28.2840    29.5200    50.4360 hc         1 A1E       0.025950
     26 H151       -31.1410    35.1690    47.1560 hc         1 A1E       0.082700
     27 H171       -31.2790    33.8640    50.7730 ha         1 A1E       0.128500
     28 H201       -27.5820    36.8780    49.4970 ha         1 A1E       0.078500
     29 H211       -29.2450    36.2020    47.8170 ha         1 A1E       0.128500
     30 H071       -31.6980    32.9350    46.6610 hc         1 A1E       0.060700
     31 H081       -31.9960    31.1950    48.5540 hc         1 A1E       0.050700
     32 H082       -30.9770    32.1970    49.5500 hc         1 A1E       0.050700
     33 H091       -30.2170    30.9150    46.9020 hc         1 A1E       0.029700
     34 H112       -27.4590    30.7510    46.9220 hc         1 A1E       0.025950
     35 H111       -26.6110    32.1740    47.4900 hc         1 A1E       0.025950
     36 H122       -26.5260    29.9120    48.9100 hc         1 A1E       0.015700
     37 H121       -26.5980    31.4590    49.7330 hc         1 A1E       0.015700
     38 H141       -30.4250    29.6030    49.2310 hc         1 A1E       0.039950
     39 H142       -29.1570    29.2370    48.0790 hc         1 A1E       0.039950
     40 H181       -29.6190    34.5140    52.4340 ha         1 A1E       0.078500
     41 H191       -27.7440    36.0220    51.8260 ha         1 A1E       0.071000
     42 C02        -33.4070    34.0290    49.5560 c          1 A1E       0.749000
@<TRIPOS>BOND
     1     1    11 1   
     2     1    12 1   
     3     1    22 1   
     4     1    23 1   
     5     2    13 1   
     6     2    14 1   
     7     2    24 1   
     8     2    25 1   
     9     3     7 1   
    10     3     9 1   
    11     3    15 1   
    12     3    26 1   
    13     4    15 ar  
    14     4    16 ar  
    15     4    27 1   
    16     5     6 ar  
    17     5    17 ar  
    18     5    28 1   
    19     6    15 ar  
    20     6    29 1   
    21     7     8 1   
    22     7     9 1   
    23     7    42 1   
    24     8    19 1   
    25     8    20 1   
    26     9    10 1   
    27     9    30 1   
    28    10    11 1   
    29    10    31 1   
    30    10    32 1   
    31    11    14 1   
    32    11    33 1   
    33    12    13 1   
    34    12    34 1   
    35    12    35 1   
    36    13    36 1   
    37    13    37 1   
    38    14    38 1   
    39    14    39 1   
    40    16    17 ar  
    41    16    40 1   
    42    17    41 1   
    43    18    42 1   
    44    21    42 1   
@<TRIPOS>SUBSTRUCTURE
     1 A1E         1 TEMP              0 ****  ****    0 ROOT
