@<TRIPOS>MOLECULE
A1E
   59    62     1     0     0
SMALL
abcg2


@<TRIPOS>ATOM
      1 C4          79.0350    62.1630    53.0440 c6         1 A1E      -0.016000
      2 C5          77.5180    62.2310    52.8060 c3         1 A1E      -0.092100
      3 C6          79.3410    61.6080    54.4790 c6         1 A1E      -0.121700
      4 C7          78.9120    60.1630    54.6550 c          1 A1E       0.593100
      5 C8          77.1680    58.6960    55.2960 c3         1 A1E       0.150900
      6 C10         79.3560    63.9120    55.4680 c6         1 A1E       0.065300
      7 C13         79.1450    64.4620    54.0620 c          1 A1E       0.564100
      8 C15         79.9060    64.2250    51.5900 c6         1 A1E      -0.013000
      9 C17         81.2600    65.9960    50.3700 c6         1 A1E       0.281600
     10 C20         84.6080    67.4990    50.7050 cc         1 A1E       0.125900
     11 C21         82.5990    68.1350    50.0930 cc         1 A1E       0.159900
     12 C22         80.9900    63.7390    49.3500 c          1 A1E       0.673100
     13 C1          80.5990    63.1740    50.6970 c6         1 A1E      -0.170700
     14 C12         78.4880    66.6630    57.7640 c3         1 A1E      -0.151100
     15 C14         79.7360    63.5730    52.9870 c6         1 A1E      -0.145700
     16 C16         80.9180    65.3740    51.7150 c6         1 A1E      -0.111400
     17 C18         82.4990    66.8190    50.4100 cd         1 A1E      -0.179300
     18 C19         83.8180    66.4050    50.8100 cd         1 A1E      -0.162000
     19 C2          79.8230    61.8660    50.6080 c6         1 A1E      -0.056400
     20 C23         78.6070    64.7280    50.9380 c3         1 A1E      -0.092100
     21 C3          79.6960    61.2460    51.9970 c6         1 A1E      -0.077400
     22 C9          78.7820    62.5050    55.5870 c6         1 A1E      -0.061400
     23 O1          79.6250    59.2130    54.4130 o          1 A1E      -0.481000
     24 O2          77.6630    60.0390    55.1140 os         1 A1E      -0.446100
     25 O3          78.7100    64.7310    56.4440 os         1 A1E      -0.437100
     26 O4          80.4070    66.2100    56.3720 o          1 A1E      -0.483000
     27 O5          78.5470    65.4970    53.8740 o          1 A1E      -0.496100
     28 O6          83.8770    68.5710    50.2720 os         1 A1E      -0.247000
     29 O7          81.4330    65.0050    49.2920 os         1 A1E      -0.462100
     30 O8          80.9980    63.0910    48.3260 o          1 A1E      -0.505000
     31 H1          77.0410    63.0460    53.3500 hc         1 A1E       0.047033
     32 H2          77.2860    62.3610    51.7530 hc         1 A1E       0.047033
     33 H3          77.0490    61.3010    53.1230 hc         1 A1E       0.047033
     34 H4          80.4290    61.5780    54.5700 hc         1 A1E       0.077700
     35 H5          76.1480    58.8110    55.6520 h1         1 A1E       0.052700
     36 H6          77.1860    58.1580    54.3500 h1         1 A1E       0.052700
     37 H7          77.7740    58.1700    56.0320 h1         1 A1E       0.052700
     38 H8          80.4320    63.8990    55.6570 h1         1 A1E       0.079700
     39 H9          80.4350    66.6210    50.0310 h1         1 A1E       0.065700
     40 H10         85.6530    67.6820    50.8880 h4         1 A1E       0.055100
     41 H11         81.8850    68.8650    49.7510 h4         1 A1E       0.055100
     42 H12         81.5650    62.9490    51.1710 hc         1 A1E       0.069700
     43 H13         79.0220    67.5570    58.0730 hc         1 A1E       0.073700
     44 H14         77.5450    66.9380    57.2890 hc         1 A1E       0.073700
     45 H15         78.2530    66.0460    58.6330 hc         1 A1E       0.073700
     46 H16         80.7600    63.3740    53.3270 hc         1 A1E       0.062700
     47 H17         81.8270    64.9930    52.1860 hc         1 A1E       0.068200
     48 H18         80.5330    66.1740    52.3460 hc         1 A1E       0.068200
     49 H19         84.1230    65.4210    51.1270 ha         1 A1E       0.144000
     50 H20         78.8430    62.0370    50.1580 hc         1 A1E       0.062200
     51 H21         80.3480    61.1700    49.9540 hc         1 A1E       0.062200
     52 H22         78.1550    65.5090    51.5420 hc         1 A1E       0.049033
     53 H23         78.8100    65.1390    49.9480 hc         1 A1E       0.049033
     54 H24         77.8770    63.9370    50.8030 hc         1 A1E       0.049033
     55 H25         79.1310    60.3150    51.9340 hc         1 A1E       0.054700
     56 H26         80.6990    60.9850    52.3480 hc         1 A1E       0.054700
     57 H27         77.6950    62.5580    55.5320 hc         1 A1E       0.074200
     58 H28         79.0430    62.1020    56.5660 hc         1 A1E       0.074200
     59 C11         79.3220    65.8810    56.7940 c          1 A1E       0.599100
@<TRIPOS>BOND
     1     1     2 1   
     2     1     3 1   
     3     1    15 1   
     4     1    21 1   
     5     2    31 1   
     6     2    32 1   
     7     2    33 1   
     8     3     4 1   
     9     3    22 1   
    10     3    34 1   
    11     4    23 2   
    12     4    24 1   
    13     5    24 1   
    14     5    35 1   
    15     5    36 1   
    16     5    37 1   
    17     6     7 1   
    18     6    22 1   
    19     6    25 1   
    20     6    38 1   
    21     7    15 1   
    22     7    27 2   
    23     8    13 1   
    24     8    15 1   
    25     8    16 1   
    26     8    20 1   
    27     9    16 1   
    28     9    17 1   
    29     9    29 1   
    30     9    39 1   
    31    10    18 2   
    32    10    28 1   
    33    10    40 1   
    34    11    17 2   
    35    11    28 1   
    36    11    41 1   
    37    12    13 1   
    38    12    29 1   
    39    12    30 2   
    40    13    19 1   
    41    13    42 1   
    42    14    43 1   
    43    14    44 1   
    44    14    45 1   
    45    14    59 1   
    46    15    46 1   
    47    16    47 1   
    48    16    48 1   
    49    17    18 1   
    50    18    49 1   
    51    19    21 1   
    52    19    50 1   
    53    19    51 1   
    54    20    52 1   
    55    20    53 1   
    56    20    54 1   
    57    21    55 1   
    58    21    56 1   
    59    22    57 1   
    60    22    58 1   
    61    25    59 1   
    62    26    59 2   
@<TRIPOS>SUBSTRUCTURE
     1 A1E         1 TEMP              0 ****  ****    0 ROOT
