@<TRIPOS>MOLECULE
A1E
   45    47     1     0     0
SMALL
abcg2


@<TRIPOS>ATOM
      1 C10          6.5890    -6.3270    27.4650 ca         1 A1E      -0.119300
      2 C11          9.9330    -6.1080    26.1600 c          1 A1E       0.594100
      3 C12         10.0580    -7.5790    25.7820 c3         1 A1E       0.043600
      4 C14          5.7010    -6.2840    28.5370 ca         1 A1E      -0.102000
      5 C15          4.3470    -6.0540    28.3120 ca         1 A1E      -0.109000
      6 C16          3.8730    -5.8700    27.0200 ca         1 A1E      -0.092000
      7 C17          4.7500    -5.9030    25.9290 cp         1 A1E      -0.028000
      8 C18          6.1080    -6.1220    26.1750 ca         1 A1E      -0.083000
      9 C19          4.2520    -5.7380    24.5440 cp         1 A1E      -0.042000
     10 C2          10.1330    -3.8630    28.2290 c5         1 A1E      -0.317400
     11 C20          4.8510    -6.4260    23.4820 ca         1 A1E      -0.097500
     12 C21          4.3760    -6.2900    22.1840 ca         1 A1E      -0.110000
     13 C22          3.2890    -5.4620    21.9180 ca         1 A1E      -0.103000
     14 C23          2.6850    -4.7700    22.9630 ca         1 A1E      -0.110000
     15 C24          3.1620    -4.9060    24.2610 ca         1 A1E      -0.097500
     16 C3           8.8820    -4.3270    27.4510 c5         1 A1E       0.133700
     17 C4           8.5850    -3.3220    26.3200 c5         1 A1E      -0.079400
     18 C5           8.7770    -1.9400    26.9340 c5         1 A1E      -0.290400
     19 C7           8.0480    -6.6400    27.7110 c3         1 A1E       0.155300
     20 N6           8.9640    -5.7260    27.0230 n          1 A1E      -0.394800
     21 O13         10.7450    -5.3150    25.6850 o          1 A1E      -0.581100
     22 S1          10.2960    -2.0950    27.8890 s6         1 A1E       1.080000
     23 H11         10.9780    -7.6890    25.2200 h1         1 A1E       0.090700
     24 H21         10.0610    -8.2470    26.6380 h1         1 A1E       0.090700
     25 H12          6.0680    -6.4300    29.5460 ha         1 A1E       0.112000
     26 H13          3.6580    -6.0270    29.1460 ha         1 A1E       0.118000
     27 H14          2.8140    -5.7200    26.8570 ha         1 A1E       0.119000
     28 H15          6.8050    -6.1270    25.3490 ha         1 A1E       0.126000
     29 H2          11.0430    -4.3320    27.8680 h1         1 A1E       0.117700
     30 H1          10.0300    -3.9950    29.3030 h1         1 A1E       0.117700
     31 H16          5.6820    -7.0920    23.6760 ha         1 A1E       0.114000
     32 H17          4.8490    -6.8400    21.3800 ha         1 A1E       0.115000
     33 H18          2.9160    -5.3580    20.9070 ha         1 A1E       0.115000
     34 H19          1.8430    -4.1180    22.7670 ha         1 A1E       0.115000
     35 H20          2.6920    -4.3470    25.0610 ha         1 A1E       0.114000
     36 H3           8.0390    -4.2830    28.1380 h1         1 A1E       0.065700
     37 H5           9.2700    -3.4670    25.4890 hc         1 A1E       0.086200
     38 H4           7.5650    -3.4530    25.9620 hc         1 A1E       0.086200
     39 H7           8.9090    -1.1340    26.2150 h1         1 A1E       0.108200
     40 H6           7.9880    -1.6900    27.6430 h1         1 A1E       0.108200
     41 H9           8.2540    -7.6570    27.3920 h1         1 A1E       0.058700
     42 H8           8.2540    -6.5930    28.7830 h1         1 A1E       0.058700
     43 CL1          8.7200    -8.1160    24.6880 cl         1 A1E      -0.259000
     44 O8          10.2360    -1.3120    29.1110 o          1 A1E      -0.514500
     45 O9          11.4400    -1.8850    27.0150 o          1 A1E      -0.514500
@<TRIPOS>BOND
     1     1     4 ar  
     2     1     8 ar  
     3     1    19 1   
     4     2     3 1   
     5     2    20 1   
     6     2    21 2   
     7     3    23 1   
     8     3    24 1   
     9     3    43 1   
    10     4     5 ar  
    11     4    25 1   
    12     5     6 ar  
    13     5    26 1   
    14     6     7 ar  
    15     6    27 1   
    16     7     8 ar  
    17     7     9 1   
    18     8    28 1   
    19     9    11 ar  
    20     9    15 ar  
    21    10    16 1   
    22    10    22 1   
    23    10    29 1   
    24    10    30 1   
    25    11    12 ar  
    26    11    31 1   
    27    12    13 ar  
    28    12    32 1   
    29    13    14 ar  
    30    13    33 1   
    31    14    15 ar  
    32    14    34 1   
    33    15    35 1   
    34    16    17 1   
    35    16    20 1   
    36    16    36 1   
    37    17    18 1   
    38    17    37 1   
    39    17    38 1   
    40    18    22 1   
    41    18    39 1   
    42    18    40 1   
    43    19    20 1   
    44    19    41 1   
    45    19    42 1   
    46    22    44 2   
    47    22    45 2   
@<TRIPOS>SUBSTRUCTURE
     1 A1E         1 TEMP              0 ****  ****    0 ROOT
