@<TRIPOS>MOLECULE
A1E
   39    41     1     0     0
SMALL
abcg2


@<TRIPOS>ATOM
      1 C10          6.7800    -6.2190    27.6340 cc         1 A1E      -0.179400
      2 C11          6.0820    -6.1830    28.8140 cd         1 A1E      -0.136100
      3 C13          4.6510    -5.4470    27.2570 ca         1 A1E      -0.043200
      4 C14          5.8810    -5.7500    26.6120 ca         1 A1E      -0.085800
      5 C15          3.5460    -4.9490    26.5690 ca         1 A1E      -0.120000
      6 C16          3.7040    -4.7570    25.2100 ca         1 A1E       0.146000
      7 C17          4.8990    -5.0420    24.5340 ca         1 A1E      -0.128000
      8 C18          5.9880    -5.5360    25.2320 ca         1 A1E      -0.052000
      9 C19         10.0010    -5.8100    25.9740 c          1 A1E       0.596100
     10 C2          10.2790    -3.8540    28.2780 c5         1 A1E      -0.317400
     11 C20         10.2070    -7.2250    25.4460 c3         1 A1E       0.042600
     12 C3           8.9780    -4.2900    27.5820 c5         1 A1E       0.134700
     13 C4           8.5170    -3.1380    26.6730 c5         1 A1E      -0.079400
     14 C5           8.5800    -1.8880    27.5460 c5         1 A1E      -0.286400
     15 C7           8.1970    -6.6600    27.4800 c3         1 A1E       0.186200
     16 N12          4.8050    -5.7290    28.5910 na         1 A1E      -0.223700
     17 N6           9.0730    -5.5980    26.9340 n          1 A1E      -0.394800
     18 O21         10.7200    -4.9140    25.5330 o          1 A1E      -0.588100
     19 S1          10.1200    -2.0630    28.4760 s6         1 A1E       1.072000
     20 CL22         2.3510    -4.1240    24.2840 cl         1 A1E      -0.212000
     21 H1           6.4060    -6.4490    29.8070 h4         1 A1E       0.218000
     22 H2           2.6160    -4.7200    27.0700 ha         1 A1E       0.133000
     23 H3           4.9620    -4.8700    23.4680 ha         1 A1E       0.134000
     24 H4           6.9090    -5.7510    24.7080 ha         1 A1E       0.132000
     25 H5          10.4090    -4.2960    29.2630 h1         1 A1E       0.120700
     26 H6          11.1520    -4.0240    27.6540 h1         1 A1E       0.120700
     27 H7          11.1630    -7.2450    24.9370 h1         1 A1E       0.089200
     28 H8          10.1710    -7.9900    26.2150 h1         1 A1E       0.089200
     29 H10          8.2190    -4.4070    28.3540 h1         1 A1E       0.064700
     30 H11          7.5040    -3.3130    26.3170 hc         1 A1E       0.085700
     31 H12          9.1790    -3.0420    25.8160 hc         1 A1E       0.085700
     32 H13          8.6250    -0.9500    26.9990 h1         1 A1E       0.108200
     33 H14          7.7750    -1.8610    28.2800 h1         1 A1E       0.108200
     34 H15          8.2450    -7.5130    26.8110 h1         1 A1E       0.056200
     35 H16          8.5840    -6.9760    28.4520 h1         1 A1E       0.056200
     36 H17          4.0990    -5.6120    29.3000 hn         1 A1E       0.359000
     37 CL1          8.9580    -7.6530    24.2070 cl         1 A1E      -0.257000
     38 O8          11.1990    -1.3960    27.7650 o          1 A1E      -0.517500
     39 O9           9.9190    -1.7160    29.8730 o          1 A1E      -0.517500
@<TRIPOS>BOND
     1     1     2 2   
     2     1     4 1   
     3     1    15 1   
     4     2    16 1   
     5     2    21 1   
     6     3     4 ar  
     7     3     5 ar  
     8     3    16 1   
     9     4     8 ar  
    10     5     6 ar  
    11     5    22 1   
    12     6     7 ar  
    13     6    20 1   
    14     7     8 ar  
    15     7    23 1   
    16     8    24 1   
    17     9    11 1   
    18     9    17 1   
    19     9    18 2   
    20    10    12 1   
    21    10    19 1   
    22    10    25 1   
    23    10    26 1   
    24    11    27 1   
    25    11    28 1   
    26    11    37 1   
    27    12    13 1   
    28    12    17 1   
    29    12    29 1   
    30    13    14 1   
    31    13    30 1   
    32    13    31 1   
    33    14    19 1   
    34    14    32 1   
    35    14    33 1   
    36    15    17 1   
    37    15    34 1   
    38    15    35 1   
    39    16    36 1   
    40    19    38 2   
    41    19    39 2   
@<TRIPOS>SUBSTRUCTURE
     1 A1E         1 TEMP              0 ****  ****    0 ROOT
