@<TRIPOS>MOLECULE
A1E
   71    74     1     0     0
SMALL
abcg2


@<TRIPOS>ATOM
      1 C4         -12.9660   -33.4640   -17.4860 ca         1 A1E       0.415300
      2 C5         -11.6880   -34.0090   -17.3080 ca         1 A1E      -0.076000
      3 C6         -11.0890   -33.7830   -16.0800 ca         1 A1E       0.181900
      4 N1         -11.6710   -33.0910   -15.1030 nb         1 A1E      -0.260000
      5 N3         -13.5520   -32.7780   -16.5270 nb         1 A1E      -0.324000
      6 CAY        -16.4240   -30.6430   -23.1100 c3         1 A1E       0.146900
      7 OAX        -15.2110   -31.1470   -22.5610 os         1 A1E      -0.440000
      8 CAU        -14.9330   -30.6520   -21.2750 c5         1 A1E       0.115300
      9 CAV        -13.5160   -31.0300   -20.8600 c5         1 A1E       0.146600
     10 OAW        -13.5440   -31.0340   -19.4310 os         1 A1E      -0.429000
     11 CAT        -14.8190   -31.4940   -18.9950 c5         1 A1E       0.116300
     12 CAS        -15.8210   -31.2400   -20.1380 c5         1 A1E       0.091300
     13 OAR        -16.4210   -32.4980   -20.4610 os         1 A1E      -0.454000
     14 CAQ        -15.5220   -33.5430   -20.0930 c5         1 A1E       0.147600
     15 CAP        -14.8840   -33.0340   -18.8080 c5         1 A1E       0.117300
     16 OAG        -13.6020   -33.6500   -18.6450 os         1 A1E      -0.424300
     17 CL5        -10.8930   -34.9160   -18.5570 cl         1 A1E      -0.167000
     18 C2         -12.8990   -32.6080   -15.3710 ca         1 A1E       0.425900
     19 NAH        -13.4900   -31.8950   -14.3740 nu         1 A1E      -0.918900
     20 CAI        -14.7160   -31.2060   -14.3660 ca         1 A1E       0.278000
     21 CAJ        -15.7470   -31.4380   -15.2700 ca         1 A1E      -0.130000
     22 CAK        -16.9320   -30.7100   -15.2340 ca         1 A1E      -0.073000
     23 NAZ        -17.8570   -31.0080   -16.2700 ns         1 A1E      -0.151000
     24 C          -18.2450   -30.1650   -17.2480 c          1 A1E       0.586100
     25 O          -17.9650   -28.9700   -17.2990 o          1 A1E      -0.588100
     26 CA         -19.1260   -30.8130   -18.3140 c3         1 A1E       0.062800
     27 N          -18.9660   -32.2630   -18.3940 n8         1 A1E      -1.038200
     28 CAN        -14.9200   -30.2240   -13.3930 ca         1 A1E      -0.128000
     29 CAM        -16.1170   -29.5350   -13.3230 ca         1 A1E      -0.133000
     30 CAL        -17.1780   -29.7560   -14.2240 ca         1 A1E       0.316000
     31 NBA        -18.3810   -29.0620   -14.1080 nh         1 A1E      -0.783400
     32 CBG        -18.4150   -27.9250   -13.2030 c3         1 A1E       0.197100
     33 CBF        -19.6460   -29.7990   -14.2160 c3         1 A1E       0.223800
     34 CBH        -19.7090   -31.0850   -13.3960 c3         1 A1E       0.130800
     35 NBI        -19.4930   -30.8930   -11.9670 n3         1 A1E      -0.719600
     36 CBK        -19.1820   -32.1530   -11.3080 c3         1 A1E       0.150100
     37 CBJ        -20.6180   -30.2350   -11.3190 c3         1 A1E       0.150100
     38 H1         -10.0990   -34.1780   -15.8840 h4         1 A1E       0.037100
     39 H2         -16.5070   -31.0420   -24.1200 h1         1 A1E       0.035033
     40 H3         -17.2900   -30.9630   -22.5230 h1         1 A1E       0.035033
     41 H4         -16.4050   -29.5480   -23.1510 h1         1 A1E       0.035033
     42 H6         -13.2550   -32.0160   -21.2590 h1         1 A1E       0.068200
     43 H7         -12.7640   -30.3080   -21.1730 h1         1 A1E       0.068200
     44 H8         -15.0520   -30.9760   -18.0710 h1         1 A1E       0.113700
     45 H9         -16.6280   -30.5640   -19.8730 h1         1 A1E       0.089700
     46 H10        -16.1040   -34.4520   -19.9580 h1         1 A1E       0.071700
     47 H11        -14.7630   -33.7110   -20.8630 h1         1 A1E       0.071700
     48 H12        -15.5140   -33.2670   -17.9510 h1         1 A1E       0.077700
     49 H13        -12.8970   -31.7530   -13.5700 hn         1 A1E       0.514000
     50 H14        -15.6300   -32.1690   -16.0480 ha         1 A1E       0.139000
     51 H15        -18.0600   -31.9820   -16.4740 hn         1 A1E       0.174000
     52 H16        -18.9220   -30.2850   -19.2500 h1         1 A1E       0.058700
     53 H17        -20.1590   -30.5820   -18.0380 h1         1 A1E       0.058700
     54 H18        -19.8060   -32.6930   -18.7600 hn         1 A1E       0.418500
     55 H19        -18.2060   -32.5010   -19.0260 hn         1 A1E       0.418500
     56 H21        -14.1400   -30.0120   -12.6710 ha         1 A1E       0.113000
     57 H22        -16.2400   -28.8170   -12.5260 ha         1 A1E       0.120000
     58 H23        -19.3380   -27.3730   -13.3750 h1         1 A1E       0.036033
     59 H24        -18.3790   -28.2100   -12.1440 h1         1 A1E       0.036033
     60 H25        -17.5780   -27.2560   -13.4100 h1         1 A1E       0.036033
     61 H26        -20.4330   -29.1130   -13.9090 h1         1 A1E       0.049700
     62 H27        -19.8570   -30.0610   -15.2520 h1         1 A1E       0.049700
     63 H28        -20.6810   -31.5710   -13.5990 h1         1 A1E       0.038200
     64 H29        -18.9390   -31.7690   -13.7560 h1         1 A1E       0.038200
     65 H31        -18.9670   -31.9740   -10.2540 h1         1 A1E       0.030867
     66 H32        -20.0130   -32.8790   -11.3670 h1         1 A1E       0.030867
     67 H33        -18.3030   -32.6050   -11.7700 h1         1 A1E       0.030867
     68 H34        -20.3930   -30.0840   -10.2620 h1         1 A1E       0.030867
     69 H35        -20.8040   -29.2600   -11.7660 h1         1 A1E       0.030867
     70 H36        -21.5460   -30.8290   -11.3920 h1         1 A1E       0.030867
     71 H5         -15.0470   -29.5620   -21.2570 h1         1 A1E       0.054700
@<TRIPOS>BOND
     1     1     2 ar  
     2     1     5 ar  
     3     1    16 1   
     4     2     3 ar  
     5     2    17 1   
     6     3     4 ar  
     7     3    38 1   
     8     4    18 ar  
     9     5    18 ar  
    10     6     7 1   
    11     6    39 1   
    12     6    40 1   
    13     6    41 1   
    14     7     8 1   
    15     8     9 1   
    16     8    12 1   
    17     8    71 1   
    18     9    10 1   
    19     9    42 1   
    20     9    43 1   
    21    10    11 1   
    22    11    12 1   
    23    11    15 1   
    24    11    44 1   
    25    12    13 1   
    26    12    45 1   
    27    13    14 1   
    28    14    15 1   
    29    14    46 1   
    30    14    47 1   
    31    15    16 1   
    32    15    48 1   
    33    18    19 1   
    34    19    20 1   
    35    19    49 1   
    36    20    21 ar  
    37    20    28 ar  
    38    21    22 ar  
    39    21    50 1   
    40    22    23 1   
    41    22    30 ar  
    42    23    24 1   
    43    23    51 1   
    44    24    25 2   
    45    24    26 1   
    46    26    27 1   
    47    26    52 1   
    48    26    53 1   
    49    27    54 1   
    50    27    55 1   
    51    28    29 ar  
    52    28    56 1   
    53    29    30 ar  
    54    29    57 1   
    55    30    31 1   
    56    31    32 1   
    57    31    33 1   
    58    32    58 1   
    59    32    59 1   
    60    32    60 1   
    61    33    34 1   
    62    33    61 1   
    63    33    62 1   
    64    34    35 1   
    65    34    63 1   
    66    34    64 1   
    67    35    36 1   
    68    35    37 1   
    69    36    65 1   
    70    36    66 1   
    71    36    67 1   
    72    37    68 1   
    73    37    69 1   
    74    37    70 1   
@<TRIPOS>SUBSTRUCTURE
     1 A1E         1 TEMP              0 ****  ****    0 ROOT
