@<TRIPOS>MOLECULE
A1E
   50    51     1     0     0
SMALL
abcg2


@<TRIPOS>ATOM
      1 C10        110.1770   112.8550    73.6760 c3         1 A1E      -0.176400
      2 C13        109.7470   115.4250    76.4170 ca         1 A1E      -0.107500
      3 C15        104.6160   115.8610    73.6090 c3         1 A1E       0.153600
      4 C17        110.7250   112.3920    72.3310 c3         1 A1E      -0.080100
      5 C20        110.5130   115.3750    77.5750 ca         1 A1E      -0.110500
      6 C21        105.2810   112.0360    75.2110 ca         1 A1E      -0.110500
      7 C22        110.5650   114.2080    78.3290 ca         1 A1E      -0.107500
      8 O01        109.6740   114.9960    72.7660 o          1 A1E      -0.523100
      9 N02        105.3210   116.8140    74.4530 n3         1 A1E      -0.728600
     10 C03        108.2660   114.3870    74.6390 c3         1 A1E      -0.039400
     11 C04        107.6140   115.7670    74.3450 c3         1 A1E      -0.090400
     12 C05        106.4130   116.1860    75.2250 c3         1 A1E       0.183500
     13 C06        109.0050   114.3210    75.9860 ca         1 A1E      -0.074300
     14 C07        107.1850   113.3230    74.4320 ca         1 A1E      -0.074300
     15 C08        109.3980   114.1530    73.5930 c          1 A1E       0.574100
     16 C09        106.8160   117.0800    76.3950 c3         1 A1E      -0.085100
     17 C11        109.0930   113.1470    76.7390 ca         1 A1E      -0.107500
     18 C12        106.9310   112.8460    73.1440 ca         1 A1E      -0.107500
     19 C14        106.3370   112.9050    75.4600 ca         1 A1E      -0.107500
     20 C18        109.8560   113.0920    77.9000 ca         1 A1E      -0.110500
     21 C19        105.8810   111.9730    72.8890 ca         1 A1E      -0.110500
     22 C23        105.0490   111.5620    73.9240 ca         1 A1E      -0.107500
     23 H1         109.5620   112.0840    74.1380 hc         1 A1E       0.067200
     24 H2         111.0000   113.0410    74.3740 hc         1 A1E       0.067200
     25 H3         109.7360   116.3410    75.8440 ha         1 A1E       0.119000
     26 H4         104.3080   114.9980    74.2000 h1         1 A1E       0.030367
     27 H5         103.7240   116.3360    73.1940 h1         1 A1E       0.030367
     28 H6         105.2180   115.4910    72.7630 h1         1 A1E       0.030367
     29 H7         111.3110   111.4810    72.4590 hc         1 A1E       0.040700
     30 H8         109.9150   112.1790    71.6310 hc         1 A1E       0.040700
     31 H9         111.3670   113.1520    71.8850 hc         1 A1E       0.040700
     32 H10        111.0700   116.2500    77.8850 ha         1 A1E       0.114750
     33 H11        104.6360   111.7340    76.0260 ha         1 A1E       0.114750
     34 H12        111.1580   114.1660    79.2340 ha         1 A1E       0.115000
     35 H14        108.3770   116.5430    74.3630 hc         1 A1E       0.057200
     36 H15        107.2850   115.7110    73.3080 hc         1 A1E       0.057200
     37 H16        105.9580   115.2930    75.6480 h1         1 A1E       0.060700
     38 H17        107.4630   116.5380    77.0830 hc         1 A1E       0.039033
     39 H18        107.3610   117.9650    76.0610 hc         1 A1E       0.039033
     40 H19        105.9270   117.4050    76.9390 hc         1 A1E       0.039033
     41 H20        108.5740   112.2580    76.4170 ha         1 A1E       0.119000
     42 H21        107.5470   113.1710    72.3140 ha         1 A1E       0.119000
     43 H22        106.4910   113.2650    76.4670 ha         1 A1E       0.119000
     44 H23        106.2080   118.7170    74.3390 h1         1 A1E       0.030367
     45 H24        106.3810   117.7690    72.8490 h1         1 A1E       0.030367
     46 H25        104.8150   118.4660    73.2840 h1         1 A1E       0.030367
     47 H26        109.8970   112.1700    78.4660 ha         1 A1E       0.114750
     48 H27        105.7110   111.6210    71.8790 ha         1 A1E       0.114750
     49 H28        104.2270   110.8840    73.7310 ha         1 A1E       0.115000
     50 C16        105.7100   117.9940    73.6940 c3         1 A1E       0.153600
@<TRIPOS>BOND
     1     1     4 1   
     2     1    15 1   
     3     1    23 1   
     4     1    24 1   
     5     2     5 ar  
     6     2    13 ar  
     7     2    25 1   
     8     3     9 1   
     9     3    26 1   
    10     3    27 1   
    11     3    28 1   
    12     4    29 1   
    13     4    30 1   
    14     4    31 1   
    15     5     7 ar  
    16     5    32 1   
    17     6    19 ar  
    18     6    22 ar  
    19     6    33 1   
    20     7    20 ar  
    21     7    34 1   
    22     8    15 2   
    23     9    12 1   
    24     9    50 1   
    25    10    11 1   
    26    10    13 1   
    27    10    14 1   
    28    10    15 1   
    29    11    12 1   
    30    11    35 1   
    31    11    36 1   
    32    12    16 1   
    33    12    37 1   
    34    13    17 ar  
    35    14    18 ar  
    36    14    19 ar  
    37    16    38 1   
    38    16    39 1   
    39    16    40 1   
    40    17    20 ar  
    41    17    41 1   
    42    18    21 ar  
    43    18    42 1   
    44    19    43 1   
    45    20    47 1   
    46    21    22 ar  
    47    21    48 1   
    48    22    49 1   
    49    44    50 1   
    50    45    50 1   
    51    46    50 1   
@<TRIPOS>SUBSTRUCTURE
     1 A1E         1 TEMP              0 ****  ****    0 ROOT
