@<TRIPOS>MOLECULE
A1E
   38    39     1     0     0
SMALL
abcg2


@<TRIPOS>ATOM
      1 C1         146.1330   153.9160   183.0370 c3         1 A1E      -0.106600
      2 C10        136.5170   152.1260   179.3940 ca         1 A1E      -0.166000
      3 C11        136.9680   152.2330   180.7130 ca         1 A1E      -0.020200
      4 C12        138.3320   152.1620   181.0560 ca         1 A1E      -0.130800
      5 C13        138.4200   152.3090   182.4750 cc         1 A1E      -0.211200
      6 C14        137.1400   152.4580   182.9270 cd         1 A1E      -0.182100
      7 C2         144.9080   154.2070   182.1810 c3         1 A1E       0.175500
      8 C3         145.1510   155.4320   181.2980 c3         1 A1E      -0.106600
      9 C4         143.2900   153.0620   180.7370 c3         1 A1E       0.172800
     10 C5         142.9320   151.7020   180.1590 c3         1 A1E       0.168300
     11 C6         141.5730   151.7030   179.4680 c3         1 A1E       0.126600
     12 C7         139.2850   151.9770   180.0400 ca         1 A1E       0.195100
     13 C8         138.8500   151.8670   178.7300 ca         1 A1E      -0.241000
     14 C9         137.4780   151.9440   178.4250 ca         1 A1E      -0.053000
     15 N1         144.5490   152.9990   181.4490 n7         1 A1E      -0.871400
     16 N2         136.2730   152.4130   181.8720 na         1 A1E      -0.221700
     17 O1         140.5700   151.9190   180.4410 os         1 A1E      -0.339100
     18 O2         143.9230   151.3740   179.2070 oh         1 A1E      -0.662000
     19 H1         145.9520   153.0790   183.7120 hc         1 A1E       0.036367
     20 H2         146.9940   153.6650   182.4120 hc         1 A1E       0.036367
     21 H3         146.4060   154.7840   183.6380 hc         1 A1E       0.036367
     22 H17        139.3100   152.3050   183.0830 ha         1 A1E       0.211000
     23 H18        136.7750   152.5950   183.9310 h4         1 A1E       0.211000
     24 H4         144.0700   154.4290   182.8510 h1         1 A1E       0.054700
     25 H5         144.2750   155.6900   180.7020 hc         1 A1E       0.036367
     26 H6         145.4030   156.3050   181.9020 hc         1 A1E       0.036367
     27 H7         145.9820   155.2510   180.6120 hc         1 A1E       0.036367
     28 H10        142.5100   153.3580   181.4420 h1         1 A1E       0.042700
     29 H9         143.2680   153.8010   179.9200 h1         1 A1E       0.042700
     30 H11        142.9160   150.9710   180.9790 h1         1 A1E       0.059700
     31 H12        141.5480   152.4820   178.6970 h1         1 A1E       0.040700
     32 H13        141.4170   150.7370   178.9700 h1         1 A1E       0.040700
     33 H14        139.5490   151.7200   177.9180 ha         1 A1E       0.115000
     34 H15        137.1770   151.8540   177.3890 ha         1 A1E       0.108000
     35 H8         145.2920   152.7760   180.7970 hn         1 A1E       0.420000
     36 H19        135.2720   152.4980   181.9420 hn         1 A1E       0.348000
     37 H20        143.8670   150.4340   179.0110 ho         1 A1E       0.445000
     38 H16        135.4650   152.1840   179.1460 ha         1 A1E       0.115000
@<TRIPOS>BOND
     1     1     7 1   
     2     1    19 1   
     3     1    20 1   
     4     1    21 1   
     5     2     3 ar  
     6     2    14 ar  
     7     2    38 1   
     8     3     4 ar  
     9     3    16 1   
    10     4     5 1   
    11     4    12 ar  
    12     5     6 2   
    13     5    22 1   
    14     6    16 1   
    15     6    23 1   
    16     7     8 1   
    17     7    15 1   
    18     7    24 1   
    19     8    25 1   
    20     8    26 1   
    21     8    27 1   
    22     9    10 1   
    23     9    15 1   
    24     9    28 1   
    25     9    29 1   
    26    10    11 1   
    27    10    18 1   
    28    10    30 1   
    29    11    17 1   
    30    11    31 1   
    31    11    32 1   
    32    12    13 ar  
    33    12    17 1   
    34    13    14 ar  
    35    13    33 1   
    36    14    34 1   
    37    15    35 1   
    38    16    36 1   
    39    18    37 1   
@<TRIPOS>SUBSTRUCTURE
     1 A1E         1 TEMP              0 ****  ****    0 ROOT
