@<TRIPOS>MOLECULE
A1E
   51    55     1     0     0
SMALL
abcg2


@<TRIPOS>ATOM
      1 C10         -2.6170   -23.5900    17.1720 cp         1 A1E      -0.122000
      2 C11         -2.1220   -24.0040    15.9280 ca         1 A1E       0.205100
      3 C13         -2.3350   -25.5810    14.1050 c3         1 A1E       0.214900
      4 C14         -3.2430   -26.7360    13.8150 ca         1 A1E      -0.103300
      5 C02         -5.4070   -25.3710    19.0140 ca         1 A1E      -0.042900
      6 C03         -4.5280   -25.1820    17.9620 ca         1 A1E      -0.018000
      7 C04         -3.6500   -24.0990    18.0380 cp         1 A1E      -0.064000
      8 C05         -3.6840   -23.2380    19.1680 ca         1 A1E      -0.002200
      9 C06         -4.5770   -23.4470    20.2150 ca         1 A1E      -0.143000
     10 C07         -5.4460   -24.5290    20.1290 ca         1 A1E      -0.060000
     11 C09         -2.0660   -22.4520    17.8030 ca         1 A1E       0.032800
     12 C15         -4.5450   -26.5030    13.3670 ca         1 A1E      -0.086000
     13 C16         -5.4410   -27.5520    13.2280 ca         1 A1E      -0.101000
     14 C17         -5.0610   -28.8600    13.5340 ca         1 A1E      -0.069300
     15 C18         -6.0700   -29.9770    13.4560 c3         1 A1E       0.214100
     16 C20         -6.7700   -29.8490    15.8030 c5         1 A1E       0.156300
     17 C21         -8.1060   -29.9240    16.5530 c5         1 A1E      -0.078900
     18 C22         -9.1010   -30.5080    15.5150 c5         1 A1E      -0.078900
     19 C23         -8.2460   -30.7480    14.2650 c5         1 A1E       0.156300
     20 C24         -3.7530   -29.0940    13.9510 ca         1 A1E      -0.101000
     21 C25         -2.8520   -28.0420    14.0920 ca         1 A1E      -0.086000
     22 C26         -1.0880   -23.2840    15.3390 ca         1 A1E      -0.238000
     23 C27         -0.5600   -22.1580    15.9940 ca         1 A1E      -0.038000
     24 C28         -1.0290   -21.7190    17.2230 ca         1 A1E      -0.182000
     25 N08         -2.7270   -22.2580    19.0000 na         1 A1E      -0.238600
     26 N19         -7.1640   -29.7730    14.3950 n3         1 A1E      -0.720600
     27 O12         -2.7200   -25.1020    15.4080 os         1 A1E      -0.350100
     28 BR01        -6.6290   -26.8560    18.9330 br         1 A1E      -0.124100
     29 H131        -1.2860   -25.8870    14.1230 h1         1 A1E       0.044700
     30 H132        -2.4600   -24.7760    13.3760 h1         1 A1E       0.044700
     31 H031        -4.5180   -25.8450    17.1100 ha         1 A1E       0.148000
     32 H061        -4.6000   -22.7900    21.0750 ha         1 A1E       0.119000
     33 H071        -6.1510   -24.7170    20.9270 ha         1 A1E       0.127000
     34 H151        -4.8580   -25.4900    13.1420 ha         1 A1E       0.115500
     35 H161        -6.4550   -27.3570    12.9000 ha         1 A1E       0.119000
     36 H181        -5.5660   -30.9420    13.6360 h1         1 A1E       0.037700
     37 H182        -6.4990   -30.0200    12.4510 h1         1 A1E       0.037700
     38 H202        -6.1630   -28.9890    16.0860 h1         1 A1E       0.037450
     39 H211        -8.4220   -28.9310    16.8730 hc         1 A1E       0.046950
     40 H212        -8.0240   -30.5450    17.4450 hc         1 A1E       0.046950
     41 H221        -9.8940   -29.7910    15.3000 hc         1 A1E       0.046950
     42 H222        -9.5720   -31.4280    15.8590 hc         1 A1E       0.046950
     43 H232        -7.8480   -31.7780    14.2660 h1         1 A1E       0.037450
     44 H231        -8.7870   -30.6000    13.3290 h1         1 A1E       0.037450
     45 H241        -3.4430   -30.1040    14.1900 ha         1 A1E       0.119000
     46 H251        -1.8450   -28.2370    14.4410 ha         1 A1E       0.115500
     47 H261        -0.6820   -23.5810    14.3830 ha         1 A1E       0.118000
     48 H271         0.2450   -21.6150    15.5140 ha         1 A1E       0.111000
     49 H281        -0.6100   -20.8490    17.7100 ha         1 A1E       0.119000
     50 H081        -2.5260   -21.5240    19.6590 hn         1 A1E       0.355000
     51 H201        -6.1720   -30.7580    15.9890 h1         1 A1E       0.037450
@<TRIPOS>BOND
     1     1     2 ar  
     2     1     7 1   
     3     1    11 ar  
     4     2    22 ar  
     5     2    27 1   
     6     3     4 1   
     7     3    27 1   
     8     3    29 1   
     9     3    30 1   
    10     4    12 ar  
    11     4    21 ar  
    12     5     6 ar  
    13     5    10 ar  
    14     5    28 1   
    15     6     7 ar  
    16     6    31 1   
    17     7     8 ar  
    18     8     9 ar  
    19     8    25 1   
    20     9    10 ar  
    21     9    32 1   
    22    10    33 1   
    23    11    24 ar  
    24    11    25 1   
    25    12    13 ar  
    26    12    34 1   
    27    13    14 ar  
    28    13    35 1   
    29    14    15 1   
    30    14    20 ar  
    31    15    26 1   
    32    15    36 1   
    33    15    37 1   
    34    16    17 1   
    35    16    26 1   
    36    16    38 1   
    37    16    51 1   
    38    17    18 1   
    39    17    39 1   
    40    17    40 1   
    41    18    19 1   
    42    18    41 1   
    43    18    42 1   
    44    19    26 1   
    45    19    43 1   
    46    19    44 1   
    47    20    21 ar  
    48    20    45 1   
    49    21    46 1   
    50    22    23 ar  
    51    22    47 1   
    52    23    24 ar  
    53    23    48 1   
    54    24    49 1   
    55    25    50 1   
@<TRIPOS>SUBSTRUCTURE
     1 A1E         1 TEMP              0 ****  ****    0 ROOT
