@<TRIPOS>MOLECULE
A1E
   77    82     1     0     0
SMALL
abcg2


@<TRIPOS>ATOM
      1 C10        -51.6360     1.7220   -23.3860 cc         1 A1E      -0.197400
      2 N12        -52.8530     3.2110   -22.2290 na         1 A1E      -0.321400
      3 C13        -52.1380     2.5020   -21.2880 ca         1 A1E       0.188500
      4 C15        -50.5730     0.7250   -21.1270 ca         1 A1E       0.469900
      5 C17        -49.0160    -1.1610   -20.7800 c6         1 A1E       0.237500
      6 C20        -47.8510    -3.8160   -20.0790 c6         1 A1E      -0.064700
      7 C21        -48.2500    -4.8640   -21.1100 c3         1 A1E       0.163600
      8 C24        -49.8870    -2.2850   -20.2080 c6         1 A1E      -0.091900
      9 C26        -51.3800     1.8810   -19.2860 ca         1 A1E       0.446900
     10 C28        -50.6860     1.4360   -16.8960 ca         1 A1E       0.284000
     11 O01        -50.5190    -0.1110   -24.3490 o          1 A1E      -0.571100
     12 C02        -51.1330     0.9530   -24.5050 c          1 A1E       0.631900
     13 C03        -51.3770     1.4310   -25.8990 ca         1 A1E      -0.175600
     14 C04        -51.7150     0.4860   -26.8720 ca         1 A1E      -0.048000
     15 C05        -51.9190     0.8630   -28.1910 ca         1 A1E      -0.158500
     16 C06        -51.7510     2.1970   -28.5240 ca         1 A1E       0.185000
     17 F07        -51.9360     2.5700   -29.8130 f          1 A1E      -0.178000
     18 C08        -51.3940     3.1580   -27.5970 ca         1 A1E      -0.158500
     19 C09        -51.2160     2.7670   -26.2750 ca         1 A1E      -0.048000
     20 C11        -52.5590     2.7540   -23.4750 cd         1 A1E      -0.117100
     21 C14        -51.3700     1.5480   -21.9680 ca         1 A1E      -0.260800
     22 N16        -49.7790    -0.2410   -21.6110 nu         1 A1E      -0.916100
     23 C18        -47.8510    -1.7380   -21.5800 c6         1 A1E      -0.091900
     24 C19        -47.0200    -2.6930   -20.7190 c6         1 A1E      -0.066900
     25 O22        -48.8660    -5.9690   -20.4340 oh         1 A1E      -0.672000
     26 C23        -49.0580    -3.2260   -19.3330 c6         1 A1E      -0.066900
     27 N25        -50.6000     0.9230   -19.7990 nb         1 A1E      -0.343000
     28 N27        -51.3930     2.0690   -17.9300 nu         1 A1E      -0.930900
     29 C29        -49.9720     0.2390   -17.0230 ca         1 A1E      -0.118000
     30 C30        -49.3070    -0.3110   -15.9370 ca         1 A1E      -0.141500
     31 C31        -49.3220     0.2860   -14.6650 ca         1 A1E       0.273000
     32 N32        -48.5750    -0.2510   -13.6060 nh         1 A1E      -0.786400
     33 C33        -48.4960    -1.7060   -13.4530 c6         1 A1E       0.196800
     34 C34        -49.6610    -2.2390   -12.6240 c6         1 A1E       0.125800
     35 N35        -49.7020    -1.5940   -11.3130 n3         1 A1E      -0.716600
     36 C36        -50.7900    -2.1140   -10.5000 c3         1 A1E       0.151100
     37 C37        -49.7890    -0.1410   -11.4510 c6         1 A1E       0.125800
     38 C38        -48.6250     0.3760   -12.2900 c6         1 A1E       0.196800
     39 C39        -50.0670     1.4710   -14.5440 ca         1 A1E      -0.141500
     40 C40        -50.7180     2.0330   -15.6330 ca         1 A1E      -0.118000
     41 N41        -52.1870     2.7120   -19.9730 nb         1 A1E      -0.313000
     42 H1         -53.5020     3.9530   -22.0170 hn         1 A1E       0.364000
     43 H2         -48.6120    -0.5850   -19.9440 h1         1 A1E       0.076700
     44 H3         -47.2160    -4.3300   -19.3490 hc         1 A1E       0.059700
     45 H4         -47.3540    -5.2020   -21.6430 h1         1 A1E       0.022200
     46 H5         -48.9410    -4.4510   -21.8500 h1         1 A1E       0.022200
     47 H6         -50.7030    -1.8530   -19.6270 hc         1 A1E       0.049450
     48 H7         -50.3410    -2.8310   -21.0410 hc         1 A1E       0.049450
     49 H8         -51.8280    -0.5510   -26.5860 ha         1 A1E       0.129000
     50 H9         -52.2000     0.1450   -28.9490 ha         1 A1E       0.137000
     51 H10        -51.2550     4.1860   -27.9050 ha         1 A1E       0.137000
     52 H11        -50.9190     3.5050   -25.5430 ha         1 A1E       0.129000
     53 H12        -53.0450     3.1700   -24.3390 h4         1 A1E       0.223000
     54 H13        -49.8730    -0.4290   -22.6060 hn         1 A1E       0.532000
     55 H14        -47.2220    -0.9240   -21.9480 hc         1 A1E       0.049450
     56 H15        -48.2450    -2.2580   -22.4590 hc         1 A1E       0.049450
     57 H16        -46.5480    -2.1160   -19.9170 hc         1 A1E       0.046950
     58 H17        -46.2100    -3.1200   -21.3160 hc         1 A1E       0.046950
     59 H18        -49.1860    -6.5880   -21.1010 ho         1 A1E       0.440000
     60 H19        -49.6860    -4.0310   -18.9470 hc         1 A1E       0.046950
     61 H20        -48.6910    -2.6680   -18.4650 hc         1 A1E       0.046950
     62 H21        -51.9680     2.8480   -17.6470 hn         1 A1E       0.506000
     63 H22        -49.9250    -0.2520   -17.9790 ha         1 A1E       0.127000
     64 H23        -48.7470    -1.2200   -16.1040 ha         1 A1E       0.111000
     65 H24        -48.4770    -2.1950   -14.4210 h1         1 A1E       0.061200
     66 H25        -47.5570    -1.9400   -12.9460 h1         1 A1E       0.061200
     67 H26        -50.6040    -2.0740   -13.1770 h1         1 A1E       0.039450
     68 H27        -49.5470    -3.3160   -12.4810 h1         1 A1E       0.039450
     69 H29        -50.7680    -1.6480    -9.5140 h1         1 A1E       0.032033
     70 H30        -51.7790    -1.9220   -10.9490 h1         1 A1E       0.032033
     71 H31        -50.6760    -3.1930   -10.3780 h1         1 A1E       0.032033
     72 H32        -49.7550     0.3080   -10.4550 h1         1 A1E       0.039450
     73 H33        -50.7450     0.1550   -11.9170 h1         1 A1E       0.039450
     74 H34        -47.6900     0.1300   -11.7770 h1         1 A1E       0.061200
     75 H35        -48.6640     1.4580   -12.3850 h1         1 A1E       0.061200
     76 H36        -50.1520     1.9750   -13.5930 ha         1 A1E       0.111000
     77 H37        -51.2750     2.9530   -15.4930 ha         1 A1E       0.127000
@<TRIPOS>BOND
     1     1    12 1   
     2     1    20 2   
     3     1    21 1   
     4     2     3 1   
     5     2    20 1   
     6     2    42 1   
     7     3    21 ar  
     8     3    41 ar  
     9     4    21 ar  
    10     4    22 1   
    11     4    27 ar  
    12     5     8 1   
    13     5    22 1   
    14     5    23 1   
    15     5    43 1   
    16     6     7 1   
    17     6    24 1   
    18     6    26 1   
    19     6    44 1   
    20     7    25 1   
    21     7    45 1   
    22     7    46 1   
    23     8    26 1   
    24     8    47 1   
    25     8    48 1   
    26     9    27 ar  
    27     9    28 1   
    28     9    41 ar  
    29    10    28 1   
    30    10    29 ar  
    31    10    40 ar  
    32    11    12 2   
    33    12    13 1   
    34    13    14 ar  
    35    13    19 ar  
    36    14    15 ar  
    37    14    49 1   
    38    15    16 ar  
    39    15    50 1   
    40    16    17 1   
    41    16    18 ar  
    42    18    19 ar  
    43    18    51 1   
    44    19    52 1   
    45    20    53 1   
    46    22    54 1   
    47    23    24 1   
    48    23    55 1   
    49    23    56 1   
    50    24    57 1   
    51    24    58 1   
    52    25    59 1   
    53    26    60 1   
    54    26    61 1   
    55    28    62 1   
    56    29    30 ar  
    57    29    63 1   
    58    30    31 ar  
    59    30    64 1   
    60    31    32 1   
    61    31    39 ar  
    62    32    33 1   
    63    32    38 1   
    64    33    34 1   
    65    33    65 1   
    66    33    66 1   
    67    34    35 1   
    68    34    67 1   
    69    34    68 1   
    70    35    36 1   
    71    35    37 1   
    72    36    69 1   
    73    36    70 1   
    74    36    71 1   
    75    37    38 1   
    76    37    72 1   
    77    37    73 1   
    78    38    74 1   
    79    38    75 1   
    80    39    40 ar  
    81    39    76 1   
    82    40    77 1   
@<TRIPOS>SUBSTRUCTURE
     1 A1E         1 TEMP              0 ****  ****    0 ROOT
