@<TRIPOS>MOLECULE
A1E
   58    62     1     0     0
SMALL
abcg2


@<TRIPOS>ATOM
      1 C10         -4.0640    -8.2110   -21.0980 ca         1 A1E       0.227000
      2 C13         -4.5890    -6.7400   -18.7630 ca         1 A1E       0.339000
      3 C15         -3.9160    -5.8870   -16.5770 ca         1 A1E       0.451900
      4 C17         -1.9050    -6.5030   -15.6630 ca         1 A1E       0.429900
      5 C20         -1.1150    -8.7540   -17.6420 ca         1 A1E      -0.132000
      6 C21         -0.6570    -9.8220   -18.4150 ca         1 A1E      -0.046300
      7 C22          0.5700   -10.4260   -18.1430 ca         1 A1E      -0.089300
      8 C24          0.2470   -11.7770   -20.2400 c6         1 A1E       0.162800
      9 C26         -1.9820   -12.0480   -21.1280 c3         1 A1E       0.150100
     10 C28          1.3300    -9.9230   -17.0840 ca         1 A1E      -0.081000
     11 C01         -8.5700    -7.3080   -16.7060 c3         1 A1E      -0.345100
     12 C04         -5.4840    -7.7180   -19.1470 ca         1 A1E       0.245000
     13 C05         -5.2270    -8.4770   -20.3240 ca         1 A1E       0.212000
     14 C07         -5.7860   -10.1710   -21.7380 ca         1 A1E       0.313900
     15 C08         -4.6400    -9.8970   -22.5190 ca         1 A1E       0.294900
     16 C11         -3.1860    -7.1810   -20.6960 ca         1 A1E      -0.068000
     17 C12         -3.4500    -6.4690   -19.5610 ca         1 A1E      -0.076000
     18 C19         -0.3590    -8.2710   -16.5750 ca         1 A1E       0.309000
     19 C23          1.0390   -11.6100   -18.9500 c6         1 A1E      -0.022100
     20 C27         -1.5070   -10.2960   -19.5670 c6         1 A1E       0.203100
     21 C29          0.8850    -8.8660   -16.3110 ca         1 A1E      -0.162000
     22 C31         -3.1640    -5.0270   -14.4850 ca         1 A1E       0.207900
     23 C32         -4.1520    -5.0790   -15.4470 ca         1 A1E      -0.254900
     24 N03         -6.6120    -8.0600   -18.3580 nu         1 A1E      -0.864100
     25 N06         -6.0800    -9.4730   -20.6660 nb         1 A1E      -0.645000
     26 N09         -3.7960    -8.9410   -22.2120 nb         1 A1E      -0.617000
     27 N14         -4.8110    -5.9920   -17.5910 nu         1 A1E      -0.950900
     28 N16         -2.7880    -6.5950   -16.6570 nb         1 A1E      -0.312000
     29 N18         -0.7580    -7.2400   -15.7120 nu         1 A1E      -0.922900
     30 N25         -1.1850   -11.6570   -19.9760 n3         1 A1E      -0.710600
     31 N30         -2.0310    -5.7230   -14.5700 nb         1 A1E      -0.272000
     32 O34         -7.4860    -5.7040   -18.4900 o          1 A1E      -0.543500
     33 O35         -8.9450    -7.5420   -19.2900 o          1 A1E      -0.543500
     34 S02         -7.9610    -7.0640   -18.3460 s6         1 A1E       1.185100
     35 BR33        -5.7700    -4.0940   -15.2460 br         1 A1E      -0.082100
     36 H201        -2.0670    -8.3060   -17.8690 ha         1 A1E       0.148000
     37 H241         0.5680   -11.0240   -20.9830 h1         1 A1E       0.034200
     38 H242         0.4400   -12.7600   -20.6720 h1         1 A1E       0.034200
     39 H261        -3.0430   -11.9670   -20.8870 h1         1 A1E       0.031367
     40 H262        -1.7870   -11.4140   -22.0090 h1         1 A1E       0.031367
     41 H263        -1.7620   -13.0830   -21.3940 h1         1 A1E       0.031367
     42 H281         2.2900   -10.3740   -16.8580 ha         1 A1E       0.112000
     43 H011        -9.4910    -6.7320   -16.6280 h1         1 A1E       0.108700
     44 H012        -8.7650    -8.3690   -16.5670 h1         1 A1E       0.108700
     45 H013        -7.8190    -6.9480   -16.0070 h1         1 A1E       0.108700
     46 H071        -6.4560   -10.9760   -22.0180 h4         1 A1E       0.037100
     47 H081        -4.4320   -10.4940   -23.4000 h4         1 A1E       0.034100
     48 H111        -2.3120    -6.9760   -21.2990 ha         1 A1E       0.144000
     49 H121        -2.7830    -5.6810   -19.2430 ha         1 A1E       0.143000
     50 H231         0.9310   -12.5190   -18.3480 hc         1 A1E       0.053700
     51 H232         2.1030   -11.5120   -19.1790 hc         1 A1E       0.053700
     52 H271        -1.3750    -9.5980   -20.4150 h1         1 A1E       0.044200
     53 H272        -2.5630   -10.2490   -19.2940 h1         1 A1E       0.044200
     54 H291         1.4900    -8.4970   -15.4910 ha         1 A1E       0.112000
     55 H311        -3.2910    -4.4010   -13.6100 h4         1 A1E       0.036100
     56 H031        -6.9210    -9.0090   -18.5650 hn         1 A1E       0.500000
     57 H141        -5.7240    -5.5740   -17.4780 hn         1 A1E       0.546000
     58 H181        -0.1500    -7.0770   -14.9230 hn         1 A1E       0.513000
@<TRIPOS>BOND
     1     1    13 ar  
     2     1    16 ar  
     3     1    26 ar  
     4     2    12 ar  
     5     2    17 ar  
     6     2    27 1   
     7     3    23 ar  
     8     3    27 1   
     9     3    28 ar  
    10     4    28 ar  
    11     4    29 1   
    12     4    31 ar  
    13     5     6 ar  
    14     5    18 ar  
    15     5    36 1   
    16     6     7 ar  
    17     6    20 1   
    18     7    10 ar  
    19     7    19 1   
    20     8    19 1   
    21     8    30 1   
    22     8    37 1   
    23     8    38 1   
    24     9    30 1   
    25     9    39 1   
    26     9    40 1   
    27     9    41 1   
    28    10    21 ar  
    29    10    42 1   
    30    11    34 1   
    31    11    43 1   
    32    11    44 1   
    33    11    45 1   
    34    12    13 ar  
    35    12    24 1   
    36    13    25 ar  
    37    14    15 ar  
    38    14    25 ar  
    39    14    46 1   
    40    15    26 ar  
    41    15    47 1   
    42    16    17 ar  
    43    16    48 1   
    44    17    49 1   
    45    18    21 ar  
    46    18    29 1   
    47    19    50 1   
    48    19    51 1   
    49    20    30 1   
    50    20    52 1   
    51    20    53 1   
    52    21    54 1   
    53    22    23 ar  
    54    22    31 ar  
    55    22    55 1   
    56    23    35 1   
    57    24    34 1   
    58    24    56 1   
    59    27    57 1   
    60    29    58 1   
    61    32    34 2   
    62    33    34 2   
@<TRIPOS>SUBSTRUCTURE
     1 A1E         1 TEMP              0 ****  ****    0 ROOT
