@<TRIPOS>MOLECULE
A1E
   36    37     1     0     0
SMALL
abcg2


@<TRIPOS>ATOM
      1 C1         -49.0860   -25.2530   -21.7890 ca         1 A1E      -0.066500
      2 C2         -50.2110   -25.0200   -22.5700 ca         1 A1E      -0.153000
      3 C3         -50.1970   -24.0300   -23.5580 ca         1 A1E       0.286000
      4 C4         -52.3640   -24.6930   -24.5050 c3         1 A1E       0.343900
      5 C5         -53.5470   -23.9980   -25.2010 c3         1 A1E       0.111000
      6 C6         -54.8270   -24.8660   -25.3680 c3         1 A1E       0.266000
      7 C11        -50.2070   -30.0570   -27.1130 ca         1 A1E      -0.055900
      8 C12        -50.1720   -28.7030   -27.4390 ca         1 A1E       0.368900
      9 C13        -49.0230   -23.2900   -23.7500 ca         1 A1E      -0.153000
     10 N          -51.3160   -23.7270   -24.3370 nu         1 A1E      -0.937200
     11 C          -47.9380   -24.5040   -21.9930 ca         1 A1E       0.091000
     12 O          -52.6350   -27.3940   -23.6850 o          1 A1E      -0.588100
     13 C10        -50.8800   -30.4810   -25.9790 ca         1 A1E      -0.052000
     14 C14        -47.9000   -23.5210   -22.9740 ca         1 A1E      -0.066500
     15 C8         -51.4110   -28.1860   -25.5780 ca         1 A1E       0.296500
     16 C9         -51.4970   -29.5180   -25.1930 ca         1 A1E      -0.098000
     17 F          -53.1870   -23.5670   -26.4420 f          1 A1E      -0.085000
     18 F1         -53.9230   -22.9080   -24.4840 f          1 A1E      -0.085000
     19 F2         -55.2320   -25.3230   -24.1770 f          1 A1E      -0.089333
     20 F3         -54.6250   -25.9100   -26.1770 f          1 A1E      -0.089333
     21 F4         -55.8100   -24.1230   -25.8910 f          1 A1E      -0.089333
     22 N1         -51.9500   -25.8730   -25.2320 ns         1 A1E      -0.524900
     23 N2         -50.7660   -27.7900   -26.6800 nb         1 A1E      -0.672000
     24 CL         -46.5160   -24.8080   -21.0120 cl         1 A1E      -0.211000
     25 H1         -49.1080   -26.0230   -21.0300 ha         1 A1E       0.132000
     26 H2         -51.0900   -25.6250   -22.3970 ha         1 A1E       0.125500
     27 H3         -52.7310   -25.0250   -23.5350 h2         1 A1E       0.126700
     28 H4         -49.6530   -28.3570   -28.3250 h4         1 A1E       0.042100
     29 H5         -48.9940   -22.5260   -24.5180 ha         1 A1E       0.125500
     30 H6         -51.0930   -23.2070   -25.1760 hn         1 A1E       0.472000
     31 H7         -50.9220   -31.5270   -25.7120 ha         1 A1E       0.144000
     32 H8         -47.0000   -22.9420   -23.1330 ha         1 A1E       0.132000
     33 H9         -52.0340   -29.7880   -24.2950 ha         1 A1E       0.156000
     34 H10        -51.4220   -25.7640   -26.0900 hn         1 A1E       0.350500
     35 C7         -52.0590   -27.1250   -24.7350 c          1 A1E       0.518600
     36 BR         -49.3220   -31.3100   -28.2380 br         1 A1E      -0.070100
@<TRIPOS>BOND
     1     1     2 ar  
     2     1    11 ar  
     3     1    25 1   
     4     2     3 ar  
     5     2    26 1   
     6     3     9 ar  
     7     3    10 1   
     8     4     5 1   
     9     4    10 1   
    10     4    22 1   
    11     4    27 1   
    12     5     6 1   
    13     5    17 1   
    14     5    18 1   
    15     6    19 1   
    16     6    20 1   
    17     6    21 1   
    18     7     8 ar  
    19     7    13 ar  
    20     7    36 1   
    21     8    23 ar  
    22     8    28 1   
    23     9    14 ar  
    24     9    29 1   
    25    10    30 1   
    26    11    14 ar  
    27    11    24 1   
    28    12    35 2   
    29    13    16 ar  
    30    13    31 1   
    31    14    32 1   
    32    15    16 ar  
    33    15    23 ar  
    34    15    35 1   
    35    16    33 1   
    36    22    34 1   
    37    22    35 1   
@<TRIPOS>SUBSTRUCTURE
     1 A1E         1 TEMP              0 ****  ****    0 ROOT
