@<TRIPOS>MOLECULE
A1E
   56    60     1     0     0
SMALL
abcg2


@<TRIPOS>ATOM
      1 C10        133.4300   132.1980   157.8100 ca         1 A1E       0.442900
      2 N12        132.6960   131.6030   156.8220 nh         1 A1E      -0.809300
      3 C15        131.2120   131.5000   162.1740 cy         1 A1E       0.094200
      4 C20        131.7710   130.5470   157.1380 c3         1 A1E       0.271100
      5 C21        130.4590   130.9980   157.7400 ca         1 A1E       0.004700
      6 C22        129.7570   132.1380   157.3480 ca         1 A1E      -0.229500
      7 C24        131.3180   132.3980   154.9580 c3         1 A1E      -0.331400
      8 C26        129.8750   130.1900   158.7120 ca         1 A1E      -0.128000
      9 C28        127.9730   131.6450   158.8830 ca         1 A1E      -0.127000
     10 C01        135.9780   134.6550   158.1990 ca         1 A1E      -0.109000
     11 C02        136.6600   135.2830   159.2080 ca         1 A1E      -0.071000
     12 C03        136.4270   134.9770   160.5650 ca         1 A1E      -0.106300
     13 C04        135.4910   134.0120   160.8560 ca         1 A1E      -0.058000
     14 C05        134.7840   133.3440   159.8400 ca         1 A1E      -0.202000
     15 C06        135.0110   133.6690   158.4890 ca         1 A1E       0.101000
     16 C07        137.1840   135.6950   161.6430 c3         1 A1E      -0.041800
     17 C08        133.7920   132.3200   160.0630 ca         1 A1E       0.447900
     18 C14        132.5260   130.9130   161.6550 c3         1 A1E       0.244800
     19 C16        131.3870   132.5790   163.2550 cy         1 A1E       0.126100
     20 C18        130.6490   132.6760   161.3430 cy         1 A1E       0.126100
     21 C25        132.7200   132.0890   155.4640 c3         1 A1E       0.262800
     22 C27        128.6500   130.5000   159.2780 ca         1 A1E      -0.073000
     23 C29        128.5260   132.4630   157.9130 ca         1 A1E      -0.020000
     24 N09        133.1370   131.7860   159.0550 nb         1 A1E      -0.346000
     25 N11        134.3400   133.0800   157.4710 nb         1 A1E      -0.266000
     26 N13        133.5170   131.8990   161.3050 nu         1 A1E      -0.924100
     27 N19        130.3650   130.4000   162.5490 n8         1 A1E      -0.997200
     28 O17        131.0780   133.6230   162.3290 oq         1 A1E      -0.440000
     29 S23        130.3600   133.3250   156.1530 sy         1 A1E       1.041500
     30 H202       131.5660   129.9940   156.2180 h1         1 A1E       0.068200
     31 H201       132.2350   129.8320   157.8170 h1         1 A1E       0.068200
     32 H242       130.7380   131.5100   154.7000 h1         1 A1E       0.105700
     33 H241       131.3570   133.0310   154.0690 h1         1 A1E       0.105700
     34 H261       130.4000   129.2980   159.0310 ha         1 A1E       0.113000
     35 H281       127.0190   131.9010   159.3220 ha         1 A1E       0.122000
     36 H011       136.1620   134.9090   157.1630 ha         1 A1E       0.131000
     37 H021       137.3950   136.0400   158.9580 ha         1 A1E       0.113000
     38 H041       135.3040   133.7880   161.9000 ha         1 A1E       0.100000
     39 H073       137.0380   136.7750   161.5810 hc         1 A1E       0.041033
     40 H071       136.8700   135.3730   162.6340 hc         1 A1E       0.041033
     41 H072       138.2570   135.5140   161.5600 hc         1 A1E       0.041033
     42 H141       132.3250   130.2860   160.7860 h1         1 A1E       0.067700
     43 H142       132.9450   130.2720   162.4330 h1         1 A1E       0.067700
     44 H161       132.3780   132.6900   163.7060 h1         1 A1E       0.057200
     45 H162       130.6490   132.4990   164.0630 h1         1 A1E       0.057200
     46 H182       129.5570   132.6390   161.2500 h1         1 A1E       0.057200
     47 H181       131.0730   132.8700   160.3550 h1         1 A1E       0.057200
     48 H251       133.1660   131.3560   154.7870 h1         1 A1E       0.080200
     49 H252       133.3350   132.9820   155.4290 h1         1 A1E       0.080200
     50 H271       128.2260   129.8520   160.0330 ha         1 A1E       0.112000
     51 H291       127.9910   133.3470   157.5940 ha         1 A1E       0.142000
     52 H131       134.0790   132.2550   162.0580 hn         1 A1E       0.500000
     53 H1         129.4480   130.7310   162.8240 hn         1 A1E       0.407500
     54 H192       130.2210   129.7730   161.7670 hn         1 A1E       0.407500
     55 O30        131.2360   134.2780   156.8300 o          1 A1E      -0.514000
     56 O31        129.1900   133.8590   155.4570 o          1 A1E      -0.514000
@<TRIPOS>BOND
     1     1     2 1   
     2     1    24 ar  
     3     1    25 ar  
     4     2     4 1   
     5     2    21 1   
     6     3    18 1   
     7     3    19 1   
     8     3    20 1   
     9     3    27 1   
    10     4     5 1   
    11     4    30 1   
    12     4    31 1   
    13     5     6 ar  
    14     5     8 ar  
    15     6    23 ar  
    16     6    29 1   
    17     7    21 1   
    18     7    29 1   
    19     7    32 1   
    20     7    33 1   
    21     8    22 ar  
    22     8    34 1   
    23     9    22 ar  
    24     9    23 ar  
    25     9    35 1   
    26    10    11 ar  
    27    10    15 ar  
    28    10    36 1   
    29    11    12 ar  
    30    11    37 1   
    31    12    13 ar  
    32    12    16 1   
    33    13    14 ar  
    34    13    38 1   
    35    14    15 ar  
    36    14    17 ar  
    37    15    25 ar  
    38    16    39 1   
    39    16    40 1   
    40    16    41 1   
    41    17    24 ar  
    42    17    26 1   
    43    18    26 1   
    44    18    42 1   
    45    18    43 1   
    46    19    28 1   
    47    19    44 1   
    48    19    45 1   
    49    20    28 1   
    50    20    46 1   
    51    20    47 1   
    52    21    48 1   
    53    21    49 1   
    54    22    50 1   
    55    23    51 1   
    56    26    52 1   
    57    27    53 1   
    58    27    54 1   
    59    29    55 2   
    60    29    56 2   
@<TRIPOS>SUBSTRUCTURE
     1 A1E         1 TEMP              0 ****  ****    0 ROOT
