@<TRIPOS>MOLECULE
A1E
   55    58     1     0     0
SMALL
abcg2


@<TRIPOS>ATOM
      1 C4          -5.2360     7.0900    10.1930 ca         1 A1E      -0.112000
      2 C5          -4.5420     9.3650     9.8820 ca         1 A1E      -0.112000
      3 C6          -5.1720     8.2260     9.3970 ca         1 A1E      -0.108000
      4 C7          -3.4430     8.2390    13.3120 cp         1 A1E      -0.029000
      5 C8          -2.2400     8.9020    13.5630 ca         1 A1E      -0.101500
      6 C10         -1.6870     8.9220    14.8320 ca         1 A1E      -0.087000
      7 C13         -1.7510     8.3270    17.2910 c3         1 A1E       0.238300
      8 C15         -2.0960     9.6230    17.9700 cc         1 A1E      -0.232300
      9 C17         -2.9560    10.6010    17.5700 cd         1 A1E      -0.109000
     10 C22          1.7640     6.9020    17.2030 c3         1 A1E       0.026000
     11 C24          2.0900     5.9360    15.0170 c          1 A1E       0.602100
     12 C26          2.4950     4.7100    14.2390 c5         1 A1E      -0.187700
     13 C28          1.2390     3.8240    14.0470 c5         1 A1E       0.147800
     14 C1          -4.0380     8.2310    11.9600 cp         1 A1E      -0.034000
     15 C11         -3.5110     7.6080    15.6460 ca         1 A1E      -0.087000
     16 C12         -2.3190     8.2770    15.8900 ca         1 A1E      -0.100300
     17 C18         -2.2980    11.4630    19.6170 cc         1 A1E      -0.237000
     18 C19         -3.0720    11.6580    18.5160 cd         1 A1E      -0.134000
     19 C2          -4.6730     7.0920    11.4610 ca         1 A1E      -0.098500
     20 C27          2.8790     5.0290    12.7910 c5         1 A1E      -0.090400
     21 C29          1.5840     4.7930    11.9710 c5         1 A1E       0.143800
     22 C3          -3.9820     9.3670    11.1510 ca         1 A1E      -0.098500
     23 C9          -4.0680     7.5900    14.3770 ca         1 A1E      -0.101500
     24 N14         -0.3160     8.1320    17.3310 ns         1 A1E      -0.501900
     25 N23          2.3100     5.8910    16.3450 ns         1 A1E      -0.491900
     26 N30          0.5380     4.3650    12.8990 n7         1 A1E      -0.829400
     27 O21         -0.4130     5.9010    17.0040 o          1 A1E      -0.590100
     28 O25          1.5390     6.8980    14.4960 o          1 A1E      -0.606100
     29 S16         -1.4220     9.9930    19.5160 ss         1 A1E       0.190000
     30 H1          -5.7190     6.1950     9.8230 ha         1 A1E       0.111500
     31 H2          -4.4930    10.2590     9.2740 ha         1 A1E       0.111500
     32 H3          -5.6100     8.2250     8.4080 ha         1 A1E       0.112000
     33 H4          -1.7180     9.3970    12.7530 ha         1 A1E       0.115500
     34 H5          -0.7510     9.4430    14.9920 ha         1 A1E       0.115500
     35 H6          -2.2030     7.5120    17.8640 h1         1 A1E       0.087700
     36 H7          -3.4940    10.5740    16.6340 ha         1 A1E       0.145000
     37 H8           2.0630     6.6780    18.2280 h1         1 A1E       0.065200
     38 H9           2.1750     7.8840    16.9620 h1         1 A1E       0.065200
     39 H10          3.2820     4.1660    14.7670 hc         1 A1E       0.064700
     40 H11          0.5910     3.7880    14.9250 h1         1 A1E       0.063200
     41 H12          1.5650     2.8000    13.8400 h1         1 A1E       0.063200
     42 H13         -4.0180     7.1010    16.4590 ha         1 A1E       0.115500
     43 H14         -2.1860    12.1060    20.4760 h4         1 A1E       0.151000
     44 H15         -3.7020    12.5250    18.3750 ha         1 A1E       0.136000
     45 H16         -4.7130     6.1910    12.0610 ha         1 A1E       0.115000
     46 H17          3.6680     4.3500    12.4650 hc         1 A1E       0.053200
     47 H18          3.2610     6.0420    12.6750 hc         1 A1E       0.053200
     48 H19          1.2620     5.6860    11.4360 h1         1 A1E       0.052200
     49 H20          1.7550     4.0150    11.2230 h1         1 A1E       0.052200
     50 H21         -3.5130    10.2710    11.5210 ha         1 A1E       0.115000
     51 H22         -5.0090     7.0770    14.2210 ha         1 A1E       0.115500
     52 H23          0.2750     8.9490    17.2900 hn         1 A1E       0.318500
     53 H24          2.6920     5.0570    16.7590 hn         1 A1E       0.323500
     54 H25          0.0210     5.1810    13.2000 hn         1 A1E       0.423000
     55 C20          0.2400     6.9180    17.1480 c          1 A1E       0.588100
@<TRIPOS>BOND
     1     1     3 ar  
     2     1    19 ar  
     3     1    30 1   
     4     2     3 ar  
     5     2    22 ar  
     6     2    31 1   
     7     3    32 1   
     8     4     5 ar  
     9     4    14 1   
    10     4    23 ar  
    11     5     6 ar  
    12     5    33 1   
    13     6    16 ar  
    14     6    34 1   
    15     7     8 1   
    16     7    16 1   
    17     7    24 1   
    18     7    35 1   
    19     8     9 2   
    20     8    29 1   
    21     9    18 1   
    22     9    36 1   
    23    10    25 1   
    24    10    37 1   
    25    10    38 1   
    26    10    55 1   
    27    11    12 1   
    28    11    25 1   
    29    11    28 2   
    30    12    13 1   
    31    12    20 1   
    32    12    39 1   
    33    13    26 1   
    34    13    40 1   
    35    13    41 1   
    36    14    19 ar  
    37    14    22 ar  
    38    15    16 ar  
    39    15    23 ar  
    40    15    42 1   
    41    17    18 2   
    42    17    29 1   
    43    17    43 1   
    44    18    44 1   
    45    19    45 1   
    46    20    21 1   
    47    20    46 1   
    48    20    47 1   
    49    21    26 1   
    50    21    48 1   
    51    21    49 1   
    52    22    50 1   
    53    23    51 1   
    54    24    52 1   
    55    24    55 1   
    56    25    53 1   
    57    26    54 1   
    58    27    55 2   
@<TRIPOS>SUBSTRUCTURE
     1 A1E         1 TEMP              0 ****  ****    0 ROOT
