@<TRIPOS>MOLECULE
A1E
   50    52     1     0     0
SMALL
abcg2


@<TRIPOS>ATOM
      1 C10        102.1650   110.7270   108.5760 ca         1 A1E      -0.204000
      2 C13        102.1600   109.2190   110.8910 ca         1 A1E      -0.073000
      3 C15        103.6140   107.4340   109.8950 c3         1 A1E       0.279900
      4 C17        101.8230   105.7140   109.6920 ca         1 A1E      -0.154000
      5 C20        102.7460   104.8380   107.2340 ca         1 A1E      -0.102000
      6 C21        103.4010   105.8730   107.8890 ca         1 A1E      -0.069000
      7 C26        107.7550   107.0560   109.4040 c          1 A1E       0.706000
      8 C01        100.3580   110.1360   103.7740 ca         1 A1E      -0.116000
      9 C02        100.5430   108.9760   104.5150 ca         1 A1E      -0.116500
     10 C03        101.6240   108.8590   105.3780 ca         1 A1E      -0.095500
     11 C04        102.5290   109.9080   105.5150 ca         1 A1E      -0.116300
     12 C05        102.3350   111.0690   104.7730 ca         1 A1E      -0.095500
     13 C06        101.2580   111.1840   103.9040 ca         1 A1E      -0.116500
     14 C07        103.7360   109.7870   106.4090 c3         1 A1E       0.203900
     15 C09        102.8450   109.5110   108.6090 ca         1 A1E       0.178100
     16 C11        101.4780   111.1730   109.6990 ca         1 A1E      -0.077000
     17 C12        101.4630   110.4200   110.8600 ca         1 A1E      -0.162000
     18 C14        102.8540   108.7450   109.7860 ca         1 A1E      -0.139300
     19 C16        102.9380   106.3220   109.1220 ca         1 A1E      -0.030300
     20 C18        101.2000   104.6800   109.0250 ca         1 A1E       0.148000
     21 C19        101.6340   104.2250   107.7940 ca         1 A1E      -0.164000
     22 C25        107.1270   108.4570   109.6570 c3         1 A1E       0.008500
     23 F22        100.1450   104.0820   109.6050 f          1 A1E      -0.198000
     24 N29        107.0090   109.3240   108.4920 n8         1 A1E      -0.999200
     25 O08        103.5160   109.0010   107.5600 os         1 A1E      -0.307100
     26 O23        104.9460   107.5260   109.4850 os         1 A1E      -0.420000
     27 H1         102.1510   111.3350   107.6830 ha         1 A1E       0.115000
     28 H2         102.1730   108.6340   111.8030 ha         1 A1E       0.107000
     29 H3         103.5740   107.1480   110.9590 h1         1 A1E       0.030700
     30 H4         101.4510   106.0320   110.6600 ha         1 A1E       0.121000
     31 H5         103.1100   104.4970   106.2740 ha         1 A1E       0.110000
     32 H6         104.2760   106.3160   107.4370 ha         1 A1E       0.160000
     33 H10         99.8440   108.1550   104.4180 ha         1 A1E       0.106500
     34 H11        101.7570   107.9460   105.9450 ha         1 A1E       0.122000
     35 H12        103.0270   111.8970   104.8820 ha         1 A1E       0.122000
     36 H13        101.1200   112.0950   103.3370 ha         1 A1E       0.106500
     37 H14        104.5390   109.2750   105.8730 h1         1 A1E       0.070700
     38 H15        104.1170   110.7790   106.6750 h1         1 A1E       0.070700
     39 H16        100.9530   112.1190   109.6530 ha         1 A1E       0.099000
     40 H17        100.9290   110.7650   111.7360 ha         1 A1E       0.104000
     41 H18        101.1260   103.4120   107.2930 ha         1 A1E       0.116000
     42 H19        107.7590   108.9730   110.3880 h1         1 A1E       0.041700
     43 H20        107.9410   109.5540   108.1690 hn         1 A1E       0.384000
     44 H21        106.6120   108.7810   107.7350 hn         1 A1E       0.384000
     45 C24        105.7730   108.3010   110.3280 c3         1 A1E       0.186600
     46 O27        107.9920   106.3830   110.4280 o          1 A1E      -0.731500
     47 H7         105.3380   109.2930   110.5010 h1         1 A1E       0.016700
     48 H8         105.8840   107.8140   111.3050 h1         1 A1E       0.016700
     49 O28        107.9620   106.7250   108.2220 o          1 A1E      -0.731500
     50 H9          99.5140   110.2230   103.1010 ha         1 A1E       0.103000
@<TRIPOS>BOND
     1     1    15 ar  
     2     1    16 ar  
     3     1    27 1   
     4     2    17 ar  
     5     2    18 ar  
     6     2    28 1   
     7     3    18 1   
     8     3    19 1   
     9     3    26 1   
    10     3    29 1   
    11     4    19 ar  
    12     4    20 ar  
    13     4    30 1   
    14     5     6 ar  
    15     5    21 ar  
    16     5    31 1   
    17     6    19 ar  
    18     6    32 1   
    19     7    22 1   
    20     7    46 1   
    21     7    49 1   
    22     8     9 ar  
    23     8    13 ar  
    24     8    50 1   
    25     9    10 ar  
    26     9    33 1   
    27    10    11 ar  
    28    10    34 1   
    29    11    12 ar  
    30    11    14 1   
    31    12    13 ar  
    32    12    35 1   
    33    13    36 1   
    34    14    25 1   
    35    14    37 1   
    36    14    38 1   
    37    15    18 ar  
    38    15    25 1   
    39    16    17 ar  
    40    16    39 1   
    41    17    40 1   
    42    20    21 ar  
    43    20    23 1   
    44    21    41 1   
    45    22    24 1   
    46    22    42 1   
    47    22    45 1   
    48    24    43 1   
    49    24    44 1   
    50    26    45 1   
    51    45    47 1   
    52    45    48 1   
@<TRIPOS>SUBSTRUCTURE
     1 A1E         1 TEMP              0 ****  ****    0 ROOT
