@<TRIPOS>MOLECULE
A1E
   53    58     1     0     0
SMALL
abcg2


@<TRIPOS>ATOM
      1 C8          10.6810    17.4370     1.8300 c6         1 A1E      -0.064900
      2 C5          13.6610    20.5480    -4.7600 ca         1 A1E       0.346500
      3 C4          14.7700    20.1060    -1.2660 ca         1 A1E       0.169700
      4 N3          12.8280    20.6880    -5.7920 nb         1 A1E      -0.678000
      5 C2          16.1830    19.8680     0.5160 ca         1 A1E       0.157300
      6 N1          15.0210    20.5180    -4.8000 na         1 A1E      -0.176100
      7 C6           9.4970    17.9910     2.6640 c6         1 A1E      -0.073400
      8 N6          15.5570    20.3610    -3.5770 nc         1 A1E      -0.469100
      9 C1          13.3040    20.4010    -3.4000 ca         1 A1E      -0.208900
     10 C10         13.7800    19.8560     0.7850 ca         1 A1E       0.387900
     11 C11          9.0940    19.3730     2.1310 c6         1 A1E      -0.042700
     12 C12         15.0780    19.7740     1.3260 ca         1 A1E      -0.036000
     13 C13          8.5430    19.2180     0.7070 c6         1 A1E      -0.073400
     14 C14          9.5830    18.4700    -0.1680 c6         1 A1E      -0.064900
     15 C15         14.5540    20.2860    -2.7110 cd         1 A1E       0.316900
     16 C16         11.3250    19.7430     1.0590 c6         1 A1E       0.236500
     17 C17          9.9680    21.7730     1.9310 c          1 A1E       0.713000
     18 C18         10.3430    20.2810     2.1150 c6         1 A1E      -0.193700
     19 C19         10.9010    18.3350     0.6070 c6         1 A1E      -0.082700
     20 C20         17.5510    19.7830     1.0610 cx         1 A1E      -0.196000
     21 C21         18.6520    20.6230     0.4470 cx         1 A1E      -0.109900
     22 C22         18.6460    19.1480     0.2290 cx         1 A1E      -0.109900
     23 C3          11.5390    20.6850    -5.4730 ca         1 A1E       0.341900
     24 C7          11.0890    20.5460    -4.1510 ca         1 A1E       0.061000
     25 C9          11.9410    20.4030    -3.0840 ca         1 A1E       0.003000
     26 F1           9.7500    20.5580    -3.9410 f          1 A1E      -0.173000
     27 F2          15.2000    19.5990     2.6690 f          1 A1E      -0.185000
     28 N2          12.6910    19.7890     1.5690 nu         1 A1E      -0.879100
     29 N4          16.0160    20.0410    -0.8140 nb         1 A1E      -0.218000
     30 N5          13.6510    20.0170    -0.5390 nb         1 A1E      -0.247000
     31 O1           9.3760    22.3070     2.9070 o          1 A1E      -0.726000
     32 O2          10.2550    22.3420     0.8480 o          1 A1E      -0.726000
     33 H6          11.5940    17.4010     2.4290 hc         1 A1E       0.025700
     34 H7          10.4820    16.4140     1.5040 hc         1 A1E       0.025700
     35 H4           8.6380    17.3180     2.6060 hc         1 A1E       0.034700
     36 H5           9.7720    18.0680     3.7190 hc         1 A1E       0.034700
     37 H9           8.3400    19.8190     2.7810 hc         1 A1E       0.072700
     38 H10          7.5990    18.6690     0.7380 hc         1 A1E       0.034700
     39 H11          8.3240    20.2020     0.2880 hc         1 A1E       0.034700
     40 H12          9.2210    17.4740    -0.4320 hc         1 A1E       0.025700
     41 H13          9.7530    19.0050    -1.1040 hc         1 A1E       0.025700
     42 H14         11.2900    20.4110     0.2020 h1         1 A1E       0.114700
     43 H15         10.8020    20.2070     3.1060 hc         1 A1E       0.037700
     44 H16         11.6760    17.9180    -0.0390 hc         1 A1E       0.042700
     45 H17         17.6050    19.6270     2.1280 hc         1 A1E       0.089700
     46 H18         18.3690    21.2540    -0.3850 hc         1 A1E       0.075700
     47 H19         19.3780    21.0460     1.1280 hc         1 A1E       0.075700
     48 H20         19.3690    18.5410     0.7570 hc         1 A1E       0.075700
     49 H21         18.3580    18.7870    -0.7490 hc         1 A1E       0.075700
     50 H3          10.8160    20.7950    -6.2720 h4         1 A1E       0.029100
     51 H8          11.5800    20.3010    -2.0730 ha         1 A1E       0.184000
     52 H2          12.8400    19.6010     2.5470 hn         1 A1E       0.498000
     53 H1          15.6180    20.5940    -5.6090 hn         1 A1E       0.382000
@<TRIPOS>BOND
     1     1     7 1   
     2     1    19 1   
     3     1    33 1   
     4     1    34 1   
     5     2     4 ar  
     6     2     6 1   
     7     2     9 ar  
     8     3    15 1   
     9     3    29 ar  
    10     3    30 ar  
    11     4    23 ar  
    12     5    12 ar  
    13     5    20 1   
    14     5    29 ar  
    15     6     8 1   
    16     6    53 1   
    17     7    11 1   
    18     7    35 1   
    19     7    36 1   
    20     8    15 2   
    21     9    15 1   
    22     9    25 ar  
    23    10    12 ar  
    24    10    28 1   
    25    10    30 ar  
    26    11    13 1   
    27    11    18 1   
    28    11    37 1   
    29    12    27 1   
    30    13    14 1   
    31    13    38 1   
    32    13    39 1   
    33    14    19 1   
    34    14    40 1   
    35    14    41 1   
    36    16    18 1   
    37    16    19 1   
    38    16    28 1   
    39    16    42 1   
    40    17    18 1   
    41    17    31 1   
    42    17    32 1   
    43    18    43 1   
    44    19    44 1   
    45    20    21 1   
    46    20    22 1   
    47    20    45 1   
    48    21    22 1   
    49    21    46 1   
    50    21    47 1   
    51    22    48 1   
    52    22    49 1   
    53    23    24 ar  
    54    23    50 1   
    55    24    25 ar  
    56    24    26 1   
    57    25    51 1   
    58    28    52 1   
@<TRIPOS>SUBSTRUCTURE
     1 A1E         1 TEMP              0 ****  ****    0 ROOT
