@<TRIPOS>MOLECULE
A1H
   45    46     1     0     0
SMALL
abcg2


@<TRIPOS>ATOM
      1 N1           3.1010    10.9910     4.8470 nv         1 A1H      -1.022200
      2 N3           5.4130    11.0440     4.7880 nu         1 A1H      -0.978400
      3 C4           6.2990    12.6500     7.8950 cc         1 A1H      -0.194000
      4 C5           6.1420    12.4900    10.4360 c6         1 A1H       0.064300
      5 C6           7.1850    11.4370    10.8190 c6         1 A1H       0.131300
      6 C7           8.5600    11.7520    10.2290 c6         1 A1H       0.114300
      7 C8           8.9530    13.1970    10.5350 c6         1 A1H       0.167300
      8 C10          6.6770    13.9010    10.6910 c6         1 A1H       0.378300
      9 C1           4.2650    10.4330     4.3660 c2         1 A1H       0.817100
     10 N2           4.2120     9.4360     3.5570 n2         1 A1H      -0.914100
     11 C2           5.4930    12.3280     5.4450 c3         1 A1H       0.223500
     12 C3           5.4040    12.2540     6.9370 cd         1 A1H       0.172300
     13 N4           5.6920    12.3490     9.0620 na         1 A1H       0.132800
     14 N5           4.5070    11.8020     8.8420 nc         1 A1H      -0.180800
     15 N6           4.3250    11.7460     7.5710 nd         1 A1H      -0.373000
     16 O1           6.7280    10.1760    10.3990 oh         1 A1H      -0.645000
     17 O2           9.5420    10.9150    10.7920 oh         1 A1H      -0.718000
     18 O4           7.9290    14.0860    10.1050 os         1 A1H      -0.467000
     19 O5           6.7040    14.0650    12.0690 os         1 A1H      -0.479000
     20 C11          6.7430    15.3960    12.5400 c3         1 A1H       0.159600
     21 C12          5.5480    15.6660    13.4180 c3         1 A1H       0.102600
     22 CL1          4.0220    15.4800    12.4840 cl         1 A1H      -0.279000
     23 H1           3.1070    11.2500     5.8250 hn         1 A1H       0.471500
     24 H2           2.2880    10.4480     4.6020 hn         1 A1H       0.471500
     25 H3           6.2800    10.6230     4.5040 hn         1 A1H       0.481000
     26 H4           7.2640    13.1180     7.8190 h4         1 A1H       0.175000
     27 H5           5.2440    12.3450    11.0370 h1         1 A1H       0.121700
     28 H6           7.2800    11.4810    11.9110 h1         1 A1H       0.072700
     29 H7           8.5240    11.6180     9.1380 h1         1 A1H       0.053700
     30 H8           9.1140    13.2980    11.6170 h1         1 A1H       0.077700
     31 H9           6.0220    14.6410    10.2160 h2         1 A1H       0.096700
     32 H10          5.1330     9.2180     3.1920 hn         1 A1H       0.370400
     33 H11          6.4420    12.7880     5.1730 h1         1 A1H       0.057700
     34 H12          4.7110    12.9870     5.0620 h1         1 A1H       0.057700
     35 H13          6.9380     9.5240    11.0730 ho         1 A1H       0.455000
     36 H14          9.4660    10.0410    10.3970 ho         1 A1H       0.516000
     37 H17         11.4230    15.1170     9.8120 ho         1 A1H       0.507000
     38 H18          7.6460    15.5440    13.1400 h1         1 A1H       0.061700
     39 H19          6.7770    16.1160    11.7170 h1         1 A1H       0.061700
     40 H20          5.5800    16.6850    13.7990 h1         1 A1H       0.075700
     41 H21          5.4960    14.9760    14.2570 h1         1 A1H       0.075700
     42 C9          10.2230    13.5980     9.8150 c3         1 A1H       0.171600
     43 O3          10.5900    14.8900    10.2340 oh         1 A1H      -0.712000
     44 H15         10.0460    13.5520     8.7310 h1         1 A1H       0.033700
     45 H16         10.9970    12.8600    10.0470 h1         1 A1H       0.033700
@<TRIPOS>BOND
     1     1     9 1   
     2     1    23 1   
     3     1    24 1   
     4     2     9 1   
     5     2    11 1   
     6     2    25 1   
     7     3    12 2   
     8     3    13 1   
     9     3    26 1   
    10     4     5 1   
    11     4     8 1   
    12     4    13 1   
    13     4    27 1   
    14     5     6 1   
    15     5    16 1   
    16     5    28 1   
    17     6     7 1   
    18     6    17 1   
    19     6    29 1   
    20     7    18 1   
    21     7    30 1   
    22     7    42 1   
    23     8    18 1   
    24     8    19 1   
    25     8    31 1   
    26     9    10 2   
    27    10    32 1   
    28    11    12 1   
    29    11    33 1   
    30    11    34 1   
    31    12    15 1   
    32    13    14 1   
    33    14    15 2   
    34    16    35 1   
    35    17    36 1   
    36    19    20 1   
    37    20    21 1   
    38    20    38 1   
    39    20    39 1   
    40    21    22 1   
    41    21    40 1   
    42    21    41 1   
    43    37    43 1   
    44    42    43 1   
    45    42    44 1   
    46    42    45 1   
@<TRIPOS>SUBSTRUCTURE
     1 A1H         1 TEMP              0 ****  ****    0 ROOT
