@<TRIPOS>MOLECULE
A1H
   28    28     1     0     0
SMALL
abcg2


@<TRIPOS>ATOM
      1 C1         180.8900   210.2680   198.4720 c6         1 A1H       0.358300
      2 C2         180.4770   211.7010   198.8690 c6         1 A1H       0.107300
      3 C3         180.2270   212.5270   197.6110 c6         1 A1H       0.135300
      4 C4         179.0780   211.8980   196.7930 c6         1 A1H       0.163300
      5 C5         179.0570   210.3700   196.9780 c6         1 A1H       0.137300
      6 C6         178.4870   209.6000   195.7850 c3         1 A1H       0.197300
      7 C7         178.2610   208.1280   196.1080 c3         1 A1H       0.155600
      8 O4         179.1720   212.2190   195.4210 oh         1 A1H      -0.726000
      9 O5         180.3560   209.8770   197.2450 os         1 A1H      -0.429000
     10 O6         179.3270   209.6350   194.6570 oh         1 A1H      -0.719000
     11 O3         181.3890   212.5660   196.8180 oh         1 A1H      -0.694000
     12 O2         179.3080   211.7360   199.6490 oh         1 A1H      -0.716000
     13 O7         177.3010   208.0360   197.1360 oh         1 A1H      -0.671000
     14 H1         181.9750   210.2300   198.3430 h2         1 A1H       0.067700
     15 O1         180.4850   209.4010   199.4950 oh         1 A1H      -0.756000
     16 H2         181.3180   212.1430   199.4260 h1         1 A1H       0.035700
     17 H3         179.9290   213.5430   197.9040 h1         1 A1H       0.045700
     18 H4         178.1340   212.2820   197.1950 h1         1 A1H       0.052700
     19 H5         178.3900   210.1650   197.8220 h1         1 A1H       0.079700
     20 H61        177.5020   210.0420   195.5680 h1         1 A1H       0.045700
     21 H71        177.9160   207.6290   195.1930 h1         1 A1H       0.038200
     22 H72        179.2110   207.6610   196.3920 h1         1 A1H       0.038200
     23 HO4        179.2110   213.1740   195.3110 ho         1 A1H       0.517000
     24 HO6        179.4880   210.5680   194.4690 ho         1 A1H       0.536000
     25 HO3        182.0520   213.0790   197.2910 ho         1 A1H       0.499000
     26 HO2        179.3480   210.9840   200.2520 ho         1 A1H       0.532000
     27 HO7        177.2590   207.1210   197.4270 ho         1 A1H       0.447000
     28 HO1        181.2240   208.8520   199.7710 ho         1 A1H       0.523000
@<TRIPOS>BOND
     1     1     2 1   
     2     1     9 1   
     3     1    14 1   
     4     1    15 1   
     5     2     3 1   
     6     2    12 1   
     7     2    16 1   
     8     3     4 1   
     9     3    11 1   
    10     3    17 1   
    11     4     5 1   
    12     4     8 1   
    13     4    18 1   
    14     5     6 1   
    15     5     9 1   
    16     5    19 1   
    17     6     7 1   
    18     6    10 1   
    19     6    20 1   
    20     7    13 1   
    21     7    21 1   
    22     7    22 1   
    23     8    23 1   
    24    10    24 1   
    25    11    25 1   
    26    12    26 1   
    27    13    27 1   
    28    15    28 1   
@<TRIPOS>SUBSTRUCTURE
     1 A1H         1 TEMP              0 ****  ****    0 ROOT
