@<TRIPOS>MOLECULE
A1H
   51    52     1     0     0
SMALL
abcg2


@<TRIPOS>ATOM
      1 O           30.6120    38.2800    57.7820 os         1 A1H      -0.328100
      2 C1          29.7210    36.0380    57.8110 ca         1 A1H      -0.097000
      3 O4          29.0490    32.3420    57.0270 o          1 A1H      -0.540500
      4 S           28.7370    33.4910    57.8630 sy         1 A1H       1.125600
      5 O3          29.2680    33.5260    59.2180 o          1 A1H      -0.540500
      6 N           27.0930    33.6530    57.8120 n8         1 A1H      -1.000100
      7 C           29.2490    34.9790    57.0460 ca         1 A1H      -0.246500
      8 C16         29.1770    35.0380    55.6720 ca         1 A1H       0.020000
      9 C6          29.5720    36.2020    55.0150 ca         1 A1H      -0.155600
     10 C4          30.0430    37.2790    55.7630 ca         1 A1H       0.140100
     11 O1          30.4270    38.4370    55.1760 os         1 A1H      -0.367100
     12 C5          31.8130    38.5030    54.8330 c3         1 A1H       0.148900
     13 C2          30.1270    37.1970    57.1660 ca         1 A1H       0.101100
     14 C3          30.7580    38.2500    59.1900 c3         1 A1H       0.143900
     15 C7          29.4880    36.1690    53.5110 c          1 A1H       0.608700
     16 O2          29.5480    35.0910    52.9330 o          1 A1H      -0.604100
     17 N1          29.3040    37.3310    52.8720 ns         1 A1H      -0.493900
     18 C8          29.2950    37.4280    51.4290 c3         1 A1H       0.106000
     19 C9          30.7060    37.4570    50.8340 c5         1 A1H       0.167500
     20 N2          30.6190    37.3360    49.3830 n3         1 A1H      -0.761600
     21 C13         30.6390    35.9890    48.8500 c3         1 A1H       0.221000
     22 C14         31.9110    35.2270    49.0990 c2         1 A1H      -0.272200
     23 C15         31.9920    34.1590    49.8840 c2         1 A1H      -0.295000
     24 C12         31.4920    38.3110    48.7550 c5         1 A1H       0.184800
     25 C11         31.4180    39.4850    49.7170 c5         1 A1H      -0.085400
     26 C10         31.4440    38.7840    51.0760 c5         1 A1H      -0.090400
     27 H2          29.7760    35.9490    58.8870 ha         1 A1H       0.144000
     28 H           26.6270    32.7630    57.9650 hn         1 A1H       0.473500
     29 H1          26.7460    34.3480    58.4660 hn         1 A1H       0.473500
     30 H24         28.8200    34.1970    55.0940 ha         1 A1H       0.164000
     31 H7          31.9770    39.4760    54.3760 h1         1 A1H       0.044700
     32 H6          32.4470    38.4100    55.7170 h1         1 A1H       0.044700
     33 H8          32.0800    37.7250    54.1160 h1         1 A1H       0.044700
     34 H5          31.1760    39.2110    59.4740 h1         1 A1H       0.046700
     35 H3          29.7980    38.1180    59.6940 h1         1 A1H       0.046700
     36 H4          31.4400    37.4580    59.5090 h1         1 A1H       0.046700
     37 H9          29.2980    38.1850    53.4060 hn         1 A1H       0.333500
     38 H11         28.7300    36.5920    51.0150 h1         1 A1H       0.064200
     39 H10         28.7640    38.3410    51.1580 h1         1 A1H       0.064200
     40 H12         31.2790    36.6300    51.2750 h1         1 A1H       0.054700
     41 H20         29.7990    35.4300    49.2740 h1         1 A1H       0.056200
     42 H19         30.4520    36.0530    47.7730 h1         1 A1H       0.056200
     43 H21         32.8100    35.5950    48.6130 ha         1 A1H       0.163000
     44 H22         32.9260    33.6370    50.0480 ha         1 A1H       0.167000
     45 H23         31.1190    33.7630    50.3920 ha         1 A1H       0.167000
     46 H18         31.1390    38.5530    47.7500 h1         1 A1H       0.035200
     47 H17         32.5350    37.9720    48.6610 h1         1 A1H       0.035200
     48 H16         30.4810    40.0280    49.5770 hc         1 A1H       0.050200
     49 H15         32.2360    40.1930    49.5870 hc         1 A1H       0.050200
     50 H14         30.9930    39.3790    51.8720 hc         1 A1H       0.042700
     51 H13         32.4760    38.5890    51.3720 hc         1 A1H       0.042700
@<TRIPOS>BOND
     1     1    13 1   
     2     1    14 1   
     3     2     7 ar  
     4     2    13 ar  
     5     2    27 1   
     6     3     4 2   
     7     4     5 2   
     8     4     6 1   
     9     4     7 1   
    10     6    28 1   
    11     6    29 1   
    12     7     8 ar  
    13     8     9 ar  
    14     8    30 1   
    15     9    10 ar  
    16     9    15 1   
    17    10    11 1   
    18    10    13 ar  
    19    11    12 1   
    20    12    31 1   
    21    12    32 1   
    22    12    33 1   
    23    14    34 1   
    24    14    35 1   
    25    14    36 1   
    26    15    16 2   
    27    15    17 1   
    28    17    18 1   
    29    17    37 1   
    30    18    19 1   
    31    18    38 1   
    32    18    39 1   
    33    19    20 1   
    34    19    26 1   
    35    19    40 1   
    36    20    21 1   
    37    20    24 1   
    38    21    22 1   
    39    21    41 1   
    40    21    42 1   
    41    22    23 2   
    42    22    43 1   
    43    23    44 1   
    44    23    45 1   
    45    24    25 1   
    46    24    46 1   
    47    24    47 1   
    48    25    26 1   
    49    25    48 1   
    50    25    49 1   
    51    26    50 1   
    52    26    51 1   
@<TRIPOS>SUBSTRUCTURE
     1 A1H         1 TEMP              0 ****  ****    0 ROOT
