@<TRIPOS>MOLECULE
A1H
   67    70     1     0     0
SMALL
abcg2


@<TRIPOS>ATOM
      1 C30         -4.4730   -28.3240   -11.8850 ca         1 A1H      -0.056000
      2 C27         -3.2510   -28.7640   -15.8480 c3         1 A1H      -0.089100
      3 C26         -2.3720   -28.3300   -14.6870 c3         1 A1H       0.170800
      4 C28         -1.4270   -30.4180   -13.9220 c3         1 A1H       0.170800
      5 C29         -1.7150   -31.6740   -13.1160 c3         1 A1H      -0.089100
      6 C24         -2.0240   -28.7010   -12.3380 c3         1 A1H       0.225100
      7 C23         -3.1630   -27.8650   -11.8130 ca         1 A1H      -0.129300
      8 C20         -6.1520   -24.3990    -9.7270 c3         1 A1H       0.145900
      9 C21         -3.9850   -25.8920   -10.6800 ca         1 A1H      -0.206000
     10 C15         -6.9070   -28.1260   -11.5030 cc         1 A1H      -0.024300
     11 C14         -7.9840   -28.0540   -10.6550 cd         1 A1H      -0.168200
     12 C13         -9.0510   -28.7750   -11.2630 ca         1 A1H      -0.140800
     13 C18         -5.2910   -26.3600   -10.7560 ca         1 A1H       0.164100
     14 C17         -5.5480   -27.6010   -11.3730 ca         1 A1H      -0.059800
     15 C12         -8.5550   -29.2750   -12.4900 ca         1 A1H       0.372500
     16 C6         -11.8480   -29.4480    -8.9440 ca         1 A1H      -0.109000
     17 C4         -12.1340   -27.7180    -7.2630 ca         1 A1H      -0.095600
     18 C8         -10.3770   -29.0870   -10.9270 cp         1 A1H       0.102000
     19 O3         -11.9780   -26.9440    -5.0340 o          1 A1H      -0.715000
     20 C5         -12.4140   -28.9860    -7.7670 ca         1 A1H      -0.105000
     21 C2         -12.7560   -27.3460    -5.9200 c          1 A1H       0.712600
     22 C7         -11.0020   -28.6210    -9.6780 cp         1 A1H      -0.101000
     23 O1         -13.9860   -27.5150    -5.8260 o          1 A1H      -0.715000
     24 C9         -11.0700   -29.8710   -11.8450 ca         1 A1H      -0.213000
     25 C10        -10.4620   -30.2930   -13.0290 ca         1 A1H       0.355900
     26 N11         -9.2130   -30.0070   -13.3730 nb         1 A1H      -0.716000
     27 N16         -7.2620   -28.8710   -12.6050 na         1 A1H      -0.334400
     28 O19         -6.3520   -25.6810   -10.2870 os         1 A1H      -0.322100
     29 C22         -2.9390   -26.6380   -11.2080 ca         1 A1H      -0.074000
     30 N25         -2.3280   -29.3160   -13.6150 n3         1 A1H      -0.728600
     31 C31        -10.7620   -27.3330    -9.1980 ca         1 A1H      -0.105000
     32 C32        -11.2940   -26.8660    -8.0010 ca         1 A1H      -0.061300
     33 C33        -11.0280   -25.4430    -7.5500 c3         1 A1H      -0.021400
     34 C34         -9.7930   -24.8090    -8.1820 c3         1 A1H      -0.080100
     35 C35        -12.2590   -24.5710    -7.8140 c3         1 A1H      -0.080100
     36 H30         -4.6540   -29.2860   -12.3500 ha         1 A1H       0.130000
     37 H27A        -3.2720   -27.9910   -16.6180 hc         1 A1H       0.036033
     38 H27B        -2.8990   -29.6820   -16.3200 hc         1 A1H       0.036033
     39 H27C        -4.2740   -28.9320   -15.5100 hc         1 A1H       0.036033
     40 H26B        -2.7790   -27.4030   -14.2800 h1         1 A1H       0.027950
     41 H26A        -1.3600   -28.0840   -15.0460 h1         1 A1H       0.027950
     42 H28A        -1.5390   -30.6620   -14.9800 h1         1 A1H       0.027950
     43 H28B        -0.3730   -30.1210   -13.7920 h1         1 A1H       0.027950
     44 H29B        -1.0470   -32.4790   -13.4260 hc         1 A1H       0.036033
     45 H29C        -1.5690   -31.5310   -12.0450 hc         1 A1H       0.036033
     46 H29A        -2.7410   -32.0080   -13.2740 hc         1 A1H       0.036033
     47 H24B        -1.1100   -28.0860   -12.3770 h1         1 A1H       0.034200
     48 H24A        -1.8170   -29.4920   -11.6130 h1         1 A1H       0.034200
     49 H20B        -7.1360   -24.0300    -9.4490 h1         1 A1H       0.042033
     50 H20C        -5.5250   -24.4350    -8.8320 h1         1 A1H       0.042033
     51 H20A        -5.7040   -23.7060   -10.4440 h1         1 A1H       0.042033
     52 H21         -3.7610   -24.9380   -10.2230 ha         1 A1H       0.115000
     53 H14         -7.9930   -27.5680    -9.6950 ha         1 A1H       0.223000
     54 H6         -12.0540   -30.4570    -9.2800 ha         1 A1H       0.091000
     55 H5         -13.0730   -29.6420    -7.2120 ha         1 A1H       0.119000
     56 H9         -12.1020   -30.1420   -11.6660 ha         1 A1H       0.123000
     57 H10        -11.0290   -30.8910   -13.7330 h4         1 A1H       0.003100
     58 H16         -6.6850   -29.0280   -13.4160 hn         1 A1H       0.350000
     59 H22         -1.9310   -26.2460   -11.1420 ha         1 A1H       0.103000
     60 H31        -10.1460   -26.6710    -9.7910 ha         1 A1H       0.099000
     61 H33        -10.8680   -25.4740    -6.4730 hc         1 A1H       0.100700
     62 H34C        -9.5860   -23.8500    -7.7050 hc         1 A1H       0.023700
     63 H34B        -8.9070   -25.4350    -8.0660 hc         1 A1H       0.023700
     64 H34A        -9.9260   -24.6130    -9.2480 hc         1 A1H       0.023700
     65 H35C       -12.1070   -23.5600    -7.4330 hc         1 A1H       0.023700
     66 H35A       -12.4570   -24.4980    -8.8860 hc         1 A1H       0.023700
     67 H35B       -13.1550   -24.9720    -7.3390 hc         1 A1H       0.023700
@<TRIPOS>BOND
     1     1     7 ar  
     2     1    14 ar  
     3     1    36 1   
     4     2     3 1   
     5     2    37 1   
     6     2    38 1   
     7     2    39 1   
     8     3    30 1   
     9     3    40 1   
    10     3    41 1   
    11     4     5 1   
    12     4    30 1   
    13     4    42 1   
    14     4    43 1   
    15     5    44 1   
    16     5    45 1   
    17     5    46 1   
    18     6     7 1   
    19     6    30 1   
    20     6    47 1   
    21     6    48 1   
    22     7    29 ar  
    23     8    28 1   
    24     8    49 1   
    25     8    50 1   
    26     8    51 1   
    27     9    13 ar  
    28     9    29 ar  
    29     9    52 1   
    30    10    11 2   
    31    10    14 1   
    32    10    27 1   
    33    11    12 1   
    34    11    53 1   
    35    12    15 ar  
    36    12    18 ar  
    37    13    14 ar  
    38    13    28 1   
    39    15    26 ar  
    40    15    27 1   
    41    16    20 ar  
    42    16    22 ar  
    43    16    54 1   
    44    17    20 ar  
    45    17    21 1   
    46    17    32 ar  
    47    18    22 1   
    48    18    24 ar  
    49    19    21 1   
    50    20    55 1   
    51    21    23 1   
    52    22    31 ar  
    53    24    25 ar  
    54    24    56 1   
    55    25    26 ar  
    56    25    57 1   
    57    27    58 1   
    58    29    59 1   
    59    31    32 ar  
    60    31    60 1   
    61    32    33 1   
    62    33    34 1   
    63    33    35 1   
    64    33    61 1   
    65    34    62 1   
    66    34    63 1   
    67    34    64 1   
    68    35    65 1   
    69    35    66 1   
    70    35    67 1   
@<TRIPOS>SUBSTRUCTURE
     1 A1H         1 TEMP              0 ****  ****    0 ROOT
