@<TRIPOS>MOLECULE
A1H
   72    76     1     0     0
SMALL
abcg2


@<TRIPOS>ATOM
      1 N1         -15.4640     8.2830    -1.1930 na         1 A1H       0.134800
      2 N3         -13.5210     8.3080    -2.0180 nc         1 A1H      -0.348000
      3 C4         -13.4050     8.6240    -0.7080 cc         1 A1H       0.235500
      4 C5         -12.1200     8.9290    -0.0890 ca         1 A1H      -0.059500
      5 C6         -11.0040     9.1680    -0.8900 ca         1 A1H      -0.134000
      6 C7          -9.7960     9.4670    -0.2980 ca         1 A1H       0.160000
      7 C8         -11.9990     8.9850     1.2990 ca         1 A1H      -0.134000
      8 C10         -9.6640     9.5290     1.0780 ca         1 A1H       0.086000
      9 C13        -19.9580    10.2420    -0.2930 c          1 A1H       0.647100
     10 C15        -22.4590    12.5450    -1.5060 c6         1 A1H      -0.087400
     11 C17        -24.5350    13.0390    -0.1810 c6         1 A1H      -0.074400
     12 C20        -21.5270     9.7470    -2.0710 ca         1 A1H      -0.044000
     13 C21        -21.2320    10.1780    -3.3590 ca         1 A1H      -0.099500
     14 C22        -21.6310     9.4000    -4.4320 ca         1 A1H       0.123500
     15 C24        -22.6070     7.8120    -2.9590 ca         1 A1H       0.123500
     16 C26        -18.8850     6.7760    -0.5930 c6         1 A1H       0.160300
     17 C28        -17.3640     6.8660    -0.4790 c6         1 A1H       0.132300
     18 C1         -16.6980    11.5600    -0.9050 c3         1 A1H       0.143900
     19 O1         -17.3130    10.4660    -1.5520 os         1 A1H      -0.454000
     20 C2         -17.6250     9.3730    -0.7290 c6         1 A1H       0.141300
     21 C3         -16.9040     8.1220    -1.2320 c6         1 A1H       0.041300
     22 N2         -14.7570     8.1060    -2.2990 nd         1 A1H      -0.189800
     23 F1          -8.7190     9.7110    -1.0450 f          1 A1H      -0.155000
     24 C9         -10.7770     9.2840     1.8610 ca         1 A1H       0.160000
     25 F2         -10.6430     9.3370     3.1860 f          1 A1H      -0.155000
     26 F3          -8.4900     9.8190     1.6340 f          1 A1H      -0.143000
     27 C11        -14.6670     8.6080    -0.1620 cd         1 A1H      -0.185000
     28 C12        -19.1200     9.0900    -0.8480 c6         1 A1H       0.073300
     29 N4         -21.1050    10.5270    -0.9600 n          1 A1H      -0.228400
     30 C14        -22.0270    11.5420    -0.4390 c6         1 A1H       0.117700
     31 C16        -23.3250    13.6380    -0.8870 c6         1 A1H      -0.075400
     32 C18        -24.1040    12.0070     0.8540 c6         1 A1H      -0.112400
     33 C19        -23.2510    10.9110     0.2220 c6         1 A1H       0.153300
     34 O2         -22.8010     9.9650     1.1640 oh         1 A1H      -0.645000
     35 CL1        -21.2470     9.9130    -6.0370 cl         1 A1H      -0.183500
     36 C23        -22.3200     8.2110    -4.2540 ca         1 A1H      -0.099000
     37 CL2        -23.4640     6.3320    -2.7110 cl         1 A1H      -0.183500
     38 C25        -22.2210     8.5630    -1.8610 ca         1 A1H      -0.099500
     39 O4         -19.4850     7.9580    -0.1010 os         1 A1H      -0.402000
     40 C27        -19.4530     5.5970     0.1650 c3         1 A1H       0.172600
     41 O5         -20.8180     5.4770    -0.1570 oh         1 A1H      -0.711000
     42 O6         -16.9820     6.9260     0.8730 oh         1 A1H      -0.704000
     43 H6         -11.0740     9.1340    -1.9680 ha         1 A1H       0.148500
     44 H7         -12.8410     8.7900     1.9500 ha         1 A1H       0.148500
     45 H12        -21.5740    12.9780    -1.9780 hc         1 A1H       0.050700
     46 H11        -23.0290    12.0430    -2.2930 hc         1 A1H       0.050700
     47 H15        -25.1250    13.8240     0.2970 hc         1 A1H       0.043700
     48 H16        -25.1890    12.5650    -0.9200 hc         1 A1H       0.043700
     49 H21        -20.6780    11.0950    -3.5090 ha         1 A1H       0.153500
     50 H24        -19.1270     6.6530    -1.6610 h1         1 A1H       0.057700
     51 H28        -16.9340     5.9900    -0.9800 h1         1 A1H       0.057700
     52 H2         -16.5140    12.3190    -1.6640 h1         1 A1H       0.041033
     53 H3         -17.3360    11.9910    -0.1300 h1         1 A1H       0.041033
     54 H1         -15.7400    11.2860    -0.4520 h1         1 A1H       0.041033
     55 H4         -17.3700     9.5630     0.3200 h1         1 A1H       0.092700
     56 H5         -17.1430     7.9890    -2.2910 h1         1 A1H       0.106700
     57 H8         -15.0320     8.8200     0.8280 h4         1 A1H       0.181000
     58 H9         -19.3310     8.9290    -1.9140 h1         1 A1H       0.061700
     59 H10        -21.4700    12.0840     0.3280 h1         1 A1H       0.097700
     60 H13        -22.7310    14.2130    -0.1700 hc         1 A1H       0.046700
     61 H14        -23.6420    14.3360    -1.6630 hc         1 A1H       0.046700
     62 H17        -23.5280    12.4930     1.6490 hc         1 A1H       0.050700
     63 H18        -24.9820    11.5550     1.3270 hc         1 A1H       0.050700
     64 H19        -23.8550    10.4220    -0.5600 h1         1 A1H       0.031700
     65 H20        -23.5710     9.5330     1.5480 ho         1 A1H       0.442000
     66 H22        -22.6240     7.6120    -5.1010 ha         1 A1H       0.146000
     67 H23        -22.4460     8.2370    -0.8550 ha         1 A1H       0.153500
     68 H25        -18.8850     4.7040    -0.1280 h1         1 A1H       0.036200
     69 H26        -19.2980     5.7400     1.2400 h1         1 A1H       0.036200
     70 H27        -21.1950     4.7790     0.3870 ho         1 A1H       0.509000
     71 H29        -16.2390     6.3340     1.0200 ho         1 A1H       0.511000
     72 O3         -19.5970    10.8360     0.7050 o          1 A1H      -0.572100
@<TRIPOS>BOND
     1     1    21 1   
     2     1    22 1   
     3     1    27 1   
     4     2     3 1   
     5     2    22 2   
     6     3     4 1   
     7     3    27 2   
     8     4     5 ar  
     9     4     7 ar  
    10     5     6 ar  
    11     5    43 1   
    12     6     8 ar  
    13     6    23 1   
    14     7    24 ar  
    15     7    44 1   
    16     8    24 ar  
    17     8    26 1   
    18     9    28 1   
    19     9    29 1   
    20     9    72 2   
    21    10    30 1   
    22    10    31 1   
    23    10    45 1   
    24    10    46 1   
    25    11    31 1   
    26    11    32 1   
    27    11    47 1   
    28    11    48 1   
    29    12    13 ar  
    30    12    29 1   
    31    12    38 ar  
    32    13    14 ar  
    33    13    49 1   
    34    14    35 1   
    35    14    36 ar  
    36    15    36 ar  
    37    15    37 1   
    38    15    38 ar  
    39    16    17 1   
    40    16    39 1   
    41    16    40 1   
    42    16    50 1   
    43    17    21 1   
    44    17    42 1   
    45    17    51 1   
    46    18    19 1   
    47    18    52 1   
    48    18    53 1   
    49    18    54 1   
    50    19    20 1   
    51    20    21 1   
    52    20    28 1   
    53    20    55 1   
    54    21    56 1   
    55    24    25 1   
    56    27    57 1   
    57    28    39 1   
    58    28    58 1   
    59    29    30 1   
    60    30    33 1   
    61    30    59 1   
    62    31    60 1   
    63    31    61 1   
    64    32    33 1   
    65    32    62 1   
    66    32    63 1   
    67    33    34 1   
    68    33    64 1   
    69    34    65 1   
    70    36    66 1   
    71    38    67 1   
    72    40    41 1   
    73    40    68 1   
    74    40    69 1   
    75    41    70 1   
    76    42    71 1   
@<TRIPOS>SUBSTRUCTURE
     1 A1H         1 TEMP              0 ****  ****    0 ROOT
