@<TRIPOS>MOLECULE
A1H
   42    44     1     0     0
SMALL
abcg2


@<TRIPOS>ATOM
      1 C2          44.7730    13.7930    18.4410 c          1 A1H       0.609000
      2 C4          42.3380    13.9240    18.7030 c          1 A1H       0.465700
      3 C6          42.5570    15.3580    19.0270 cc         1 A1H       0.529200
      4 C11         46.1510    16.9490    17.9980 ca         1 A1H      -0.084000
      5 C12         47.3410    17.6520    17.9950 ca         1 A1H       0.127000
      6 C16         49.7780    18.9970    19.4340 cc         1 A1H       0.566900
      7 C17         50.9540    19.7550    19.1780 cc         1 A1H      -0.239600
      8 C18         51.1710    20.8840    19.8870 cd         1 A1H      -0.127400
      9 C19         50.1880    21.2710    20.9030 c          1 A1H       0.528200
     10 O20         50.2750    22.2610    21.6170 o          1 A1H      -0.546000
     11 N22         48.8990    19.3060    20.3090 nd         1 A1H      -0.495300
     12 C23         52.3460    21.7940    19.6800 c3         1 A1H      -0.018500
     13 C24         51.9090    23.0230    18.8740 c3         1 A1H      -0.088100
     14 O1          45.7470    13.1340    18.1520 o          1 A1H      -0.527000
     15 N3          43.4980    13.2620    18.4320 ns         1 A1H      -0.463500
     16 O5          41.2460    13.4080    18.6730 o          1 A1H      -0.502000
     17 N7          41.4530    16.0670    19.3400 nv         1 A1H      -1.009200
     18 N8          43.7230    15.8890    19.0500 nd         1 A1H      -0.512300
     19 N9          44.8120    15.1100    18.8040 n          1 A1H      -0.075000
     20 C10         46.0420    15.8120    18.7870 ca         1 A1H       0.097600
     21 C14         48.4250    17.2270    18.7520 ca         1 A1H       0.111100
     22 O15         49.6140    17.8800    18.6830 os         1 A1H      -0.300700
     23 N21         49.1280    20.4170    21.0100 ns         1 A1H      -0.214900
     24 C25         53.5300    21.1090    19.0110 c3         1 A1H      -0.088100
     25 C26         48.2880    16.0950    19.5410 ca         1 A1H       0.127000
     26 CL27        49.6210    15.5910    20.5040 cl         1 A1H      -0.159500
     27 C28         47.1040    15.3790    19.5650 ca         1 A1H      -0.084000
     28 H1          45.3180    17.2830    17.3960 ha         1 A1H       0.149000
     29 H2          51.6430    19.4110    18.4170 ha         1 A1H       0.216000
     30 H3          52.6630    22.1370    20.6690 hc         1 A1H       0.078700
     31 H4          51.0770    23.5470    19.3430 hc         1 A1H       0.040033
     32 H5          52.7380    23.7260    18.7860 hc         1 A1H       0.040033
     33 H6          51.6060    22.7320    17.8670 hc         1 A1H       0.040033
     34 H7          43.4300    12.2820    18.1800 hn         1 A1H       0.351500
     35 H8          41.5300    17.0700    19.3800 hn         1 A1H       0.496000
     36 H9          40.5610    15.7070    19.0430 hn         1 A1H       0.496000
     37 H10         48.4150    20.6310    21.6950 hn         1 A1H       0.358500
     38 H11         53.8400    20.2130    19.5500 hc         1 A1H       0.040033
     39 H12         53.3090    20.8270    17.9800 hc         1 A1H       0.040033
     40 H13         54.3790    21.7910    18.9830 hc         1 A1H       0.040033
     41 H14         47.0110    14.5110    20.2020 ha         1 A1H       0.149000
     42 CL13        47.5120    19.0580    17.0210 cl         1 A1H      -0.159500
@<TRIPOS>BOND
     1     1    14 2   
     2     1    15 1   
     3     1    19 1   
     4     2     3 1   
     5     2    15 1   
     6     2    16 2   
     7     3    17 1   
     8     3    18 2   
     9     4     5 ar  
    10     4    20 ar  
    11     4    28 1   
    12     5    21 ar  
    13     5    42 1   
    14     6     7 1   
    15     6    11 2   
    16     6    22 1   
    17     7     8 2   
    18     7    29 1   
    19     8     9 1   
    20     8    12 1   
    21     9    10 2   
    22     9    23 1   
    23    11    23 1   
    24    12    13 1   
    25    12    24 1   
    26    12    30 1   
    27    13    31 1   
    28    13    32 1   
    29    13    33 1   
    30    15    34 1   
    31    17    35 1   
    32    17    36 1   
    33    18    19 1   
    34    19    20 1   
    35    20    27 ar  
    36    21    22 1   
    37    21    25 ar  
    38    23    37 1   
    39    24    38 1   
    40    24    39 1   
    41    24    40 1   
    42    25    26 1   
    43    25    27 ar  
    44    27    41 1   
@<TRIPOS>SUBSTRUCTURE
     1 A1H         1 TEMP              0 ****  ****    0 ROOT
