@<TRIPOS>MOLECULE
A1H
   61    65     1     0     0
SMALL
abcg2


@<TRIPOS>ATOM
      1 N1         -22.9140     8.5910    -2.9330 na         1 A1H       0.131800
      2 N3         -21.4820     9.7630    -3.9410 nc         1 A1H      -0.360000
      3 C4         -25.3800     9.0400    -2.7190 cy         1 A1H       0.142100
      4 C5         -20.8110     8.9810    -3.0660 cc         1 A1H       0.191300
      5 C6         -19.3280     9.0290    -2.9360 c3         1 A1H      -0.119700
      6 C7         -18.8660     9.3240    -1.5070 c6         1 A1H       0.144300
      7 C8         -17.3370     9.4890    -1.3850 c6         1 A1H       0.132300
      8 C10        -13.1950     8.6310    -0.8470 cc         1 A1H       0.236500
      9 C13         -9.5340     9.3990    -0.4720 ca         1 A1H      -0.095000
     10 C15        -10.6570    10.0570     1.5350 ca         1 A1H       0.139000
     11 C17        -14.4980     8.9180    -0.5090 cd         1 A1H      -0.166000
     12 C20        -19.4010     6.1850     0.3480 c3         1 A1H       0.172600
     13 C21        -17.2280     7.1330    -0.5040 c6         1 A1H       0.131300
     14 C22        -21.7380     8.2110    -2.4060 cd         1 A1H      -0.185000
     15 C2         -24.2250     8.0320    -2.6760 cy         1 A1H       0.030000
     16 C3         -24.6060     7.9050    -1.1940 cy         1 A1H       0.142100
     17 O1         -25.8030     8.6550    -1.4080 oq         1 A1H      -0.441000
     18 N2         -22.7450     9.5170    -3.8580 nd         1 A1H      -0.208800
     19 C9         -16.6650     8.1280    -1.5290 c6         1 A1H       0.059300
     20 N4         -15.2240     8.2410    -1.4110 na         1 A1H       0.133800
     21 N5         -14.4420     7.5740    -2.2460 nd         1 A1H      -0.197800
     22 N6         -13.2230     7.8030    -1.9170 nc         1 A1H      -0.349000
     23 C11        -11.9330     9.0850    -0.2760 ca         1 A1H      -0.107500
     24 C12        -10.7400     8.9750    -0.9970 ca         1 A1H      -0.070000
     25 C14         -9.4900     9.9460     0.8030 ca         1 A1H       0.088000
     26 CL1         -8.0170    10.4960     1.4950 cl         1 A1H      -0.158000
     27 C16        -11.8570     9.6280     0.9970 ca         1 A1H       0.136000
     28 F2         -12.9540     9.7450     1.7480 f          1 A1H      -0.164000
     29 O2         -16.7930    10.3370    -2.3540 os         1 A1H      -0.446000
     30 C18        -16.9670    11.7120    -2.0920 c3         1 A1H       0.142900
     31 O3         -19.3110     8.3710    -0.5650 os         1 A1H      -0.429000
     32 C19        -18.7420     7.0830    -0.6800 c6         1 A1H       0.162300
     33 O4         -20.7380     5.9630    -0.0390 oh         1 A1H      -0.730000
     34 O5         -16.9130     7.5250     0.8070 oh         1 A1H      -0.708000
     35 H7         -26.1400     8.8560    -3.4820 h1         1 A1H       0.070700
     36 H6         -25.0640    10.0850    -2.7670 h1         1 A1H       0.070700
     37 H8         -18.8900     8.1010    -3.3160 hc         1 A1H       0.069700
     38 H9         -18.9580     9.8200    -3.5880 hc         1 A1H       0.069700
     39 H10        -19.3380    10.2600    -1.1970 h1         1 A1H       0.091700
     40 H11        -17.1400     9.8820    -0.3760 h1         1 A1H       0.065700
     41 H14         -8.6250     9.3110    -1.0510 ha         1 A1H       0.139000
     42 H15        -14.9380     9.5470     0.2420 h4         1 A1H       0.184000
     43 H20        -18.8360     5.2450     0.3900 h1         1 A1H       0.040200
     44 H21        -19.3360     6.6490     1.3370 h1         1 A1H       0.040200
     45 H23        -16.8260     6.1390    -0.7330 h1         1 A1H       0.059700
     46 H25        -21.6510     7.4550    -1.6430 h4         1 A1H       0.191000
     47 H5         -24.7970     6.8900    -0.8380 h1         1 A1H       0.070700
     48 H4         -23.9140     8.4030    -0.5070 h1         1 A1H       0.070700
     49 H12        -16.8380     7.7310    -2.5330 h1         1 A1H       0.108700
     50 H13        -10.7640     8.5560    -1.9930 ha         1 A1H       0.148000
     51 H17        -16.4060    12.2610    -2.8470 h1         1 A1H       0.038700
     52 H18        -18.0140    12.0250    -2.1480 h1         1 A1H       0.038700
     53 H16        -16.5790    11.9840    -1.1050 h1         1 A1H       0.038700
     54 H19        -18.9360     6.6530    -1.6750 h1         1 A1H       0.058700
     55 H22        -21.1940     5.5170     0.6810 ho         1 A1H       0.512000
     56 H24        -16.1180     7.0670     1.0950 ho         1 A1H       0.515000
     57 F1         -10.6400    10.5680     2.7610 f          1 A1H      -0.145000
     58 C1         -24.4350     6.7750    -3.4980 c3         1 A1H      -0.097100
     59 H1         -24.3450     6.9920    -4.5630 hc         1 A1H       0.057033
     60 H2         -23.7020     6.0120    -3.2350 hc         1 A1H       0.057033
     61 H3         -25.4290     6.3680    -3.3150 hc         1 A1H       0.057033
@<TRIPOS>BOND
     1     1    14 1   
     2     1    15 1   
     3     1    18 1   
     4     2     4 1   
     5     2    18 2   
     6     3    15 1   
     7     3    17 1   
     8     3    35 1   
     9     3    36 1   
    10     4     5 1   
    11     4    14 2   
    12     5     6 1   
    13     5    37 1   
    14     5    38 1   
    15     6     7 1   
    16     6    31 1   
    17     6    39 1   
    18     7    19 1   
    19     7    29 1   
    20     7    40 1   
    21     8    11 2   
    22     8    22 1   
    23     8    23 1   
    24     9    24 ar  
    25     9    25 ar  
    26     9    41 1   
    27    10    25 ar  
    28    10    27 ar  
    29    10    57 1   
    30    11    20 1   
    31    11    42 1   
    32    12    32 1   
    33    12    33 1   
    34    12    43 1   
    35    12    44 1   
    36    13    19 1   
    37    13    32 1   
    38    13    34 1   
    39    13    45 1   
    40    14    46 1   
    41    15    16 1   
    42    15    58 1   
    43    16    17 1   
    44    16    47 1   
    45    16    48 1   
    46    19    20 1   
    47    19    49 1   
    48    20    21 1   
    49    21    22 2   
    50    23    24 ar  
    51    23    27 ar  
    52    24    50 1   
    53    25    26 1   
    54    27    28 1   
    55    29    30 1   
    56    30    51 1   
    57    30    52 1   
    58    30    53 1   
    59    31    32 1   
    60    32    54 1   
    61    33    55 1   
    62    34    56 1   
    63    58    59 1   
    64    58    60 1   
    65    58    61 1   
@<TRIPOS>SUBSTRUCTURE
     1 A1H         1 TEMP              0 ****  ****    0 ROOT
