@<TRIPOS>MOLECULE
A1H
   61    65     1     0     0
SMALL
abcg2


@<TRIPOS>ATOM
      1 N1         -22.8660     8.7220    -2.9780 na         1 A1H       0.125800
      2 N3         -21.5230    10.1530    -3.7530 nc         1 A1H      -0.353000
      3 C4         -19.3010     9.2980    -3.0040 c3         1 A1H      -0.118700
      4 C5         -20.7840     9.2220    -3.1050 cc         1 A1H       0.188300
      5 C6         -21.6500     8.2880    -2.5980 cd         1 A1H      -0.164000
      6 C7         -24.1560     8.1320    -2.7400 c5         1 A1H       0.019300
      7 C8         -24.4060     7.7050    -1.2900 c5         1 A1H       0.144600
      8 C10        -24.4270     6.8410    -3.5030 c5         1 A1H       0.147300
      9 C13        -17.2510     7.3560    -0.5470 c6         1 A1H       0.130300
     10 C15        -13.1720     8.6430    -0.8480 cc         1 A1H       0.229500
     11 C17        -10.6910     8.6210    -0.8700 ca         1 A1H      -0.073000
     12 C20        -10.5660     9.7550     1.6350 ca         1 A1H       0.138000
     13 C21        -11.7900     9.5090     1.0390 ca         1 A1H       0.135000
     14 C22        -14.4640     8.9520    -0.4850 cd         1 A1H      -0.149000
     15 C1         -16.8990    11.9000    -2.2320 c3         1 A1H       0.141900
     16 O1         -16.7330    10.5160    -2.4390 os         1 A1H      -0.445000
     17 C2         -17.2990     9.7090    -1.4470 c6         1 A1H       0.133300
     18 C3         -18.8320     9.5770    -1.5710 c6         1 A1H       0.143300
     19 O2         -25.4090     6.7160    -1.3670 os         1 A1H      -0.446000
     20 C9         -25.5720     6.2650    -2.7040 c5         1 A1H       0.124600
     21 F1         -23.3110     6.0170    -3.4170 f          1 A1H      -0.251000
     22 N2         -22.7690     9.8470    -3.6730 nd         1 A1H      -0.209800
     23 O3         -19.3070     8.6330    -0.6350 os         1 A1H      -0.427000
     24 C11        -18.7660     7.3320    -0.7430 c6         1 A1H       0.139300
     25 C12        -19.4460     6.4510     0.2840 c3         1 A1H       0.171600
     26 O4         -20.7910     6.2590    -0.0900 oh         1 A1H      -0.724000
     27 O5         -16.8930     7.7820     0.7440 oh         1 A1H      -0.711000
     28 C14        -16.6580     8.3290    -1.5670 c6         1 A1H       0.085300
     29 N4         -15.2150     8.3960    -1.4480 na         1 A1H       0.136800
     30 N5         -14.4580     7.7840    -2.3450 nd         1 A1H      -0.199800
     31 N6         -13.2330     7.9260    -1.9960 nc         1 A1H      -0.351000
     32 C16        -11.8890     8.9380    -0.2210 ca         1 A1H      -0.103500
     33 C18         -9.4620     8.8610    -0.2870 ca         1 A1H      -0.095000
     34 C19         -9.3950     9.4300     0.9760 ca         1 A1H       0.087000
     35 CL1         -7.8910     9.7380     1.7460 cl         1 A1H      -0.160000
     36 F3         -12.8880     9.8290     1.7270 f          1 A1H      -0.164000
     37 H7         -18.8520     8.3850    -3.4040 hc         1 A1H       0.069200
     38 H6         -18.9550    10.1100    -3.6440 hc         1 A1H       0.069200
     39 H8         -21.4900     7.4000    -2.0130 h4         1 A1H       0.195000
     40 H9         -24.8980     8.8710    -3.0460 h1         1 A1H       0.107700
     41 H11        -23.4970     7.3060    -0.8260 h1         1 A1H       0.068200
     42 H10        -24.7530     8.5410    -0.6800 h1         1 A1H       0.068200
     43 H14        -24.6580     6.9900    -4.5580 h1         1 A1H       0.089700
     44 H19        -16.8590     6.3540    -0.7620 h1         1 A1H       0.058700
     45 H22        -10.7290     8.1750    -1.8530 ha         1 A1H       0.149000
     46 H24        -14.8840     9.5100     0.3310 h4         1 A1H       0.187000
     47 H2         -16.3190    12.4170    -2.9950 h1         1 A1H       0.038033
     48 H3         -17.9420    12.2200    -2.3200 h1         1 A1H       0.038033
     49 H1         -16.5290    12.2070    -1.2470 h1         1 A1H       0.038033
     50 H4         -17.0870    10.1230    -0.4500 h1         1 A1H       0.067700
     51 H5         -19.2840    10.5230    -1.2590 h1         1 A1H       0.091700
     52 H13        -26.5230     6.6230    -3.1130 h1         1 A1H       0.066700
     53 H12        -25.5800     5.1730    -2.7400 h1         1 A1H       0.066700
     54 H15        -18.9590     6.9020    -1.7390 h1         1 A1H       0.058700
     55 H16        -18.9050     5.4960     0.3220 h1         1 A1H       0.032700
     56 H17        -19.3640     6.9120     1.2740 h1         1 A1H       0.032700
     57 H18        -21.2350     5.7660     0.6060 ho         1 A1H       0.513000
     58 H20        -16.6990     7.0160     1.2910 ho         1 A1H       0.515000
     59 H21        -16.8390     7.9280    -2.5670 h1         1 A1H       0.107700
     60 H23         -8.5510     8.6050    -0.8110 ha         1 A1H       0.138000
     61 F2         -10.5310    10.2930     2.8490 f          1 A1H      -0.146000
@<TRIPOS>BOND
     1     1     5 1   
     2     1     6 1   
     3     1    22 1   
     4     2     4 1   
     5     2    22 2   
     6     3     4 1   
     7     3    18 1   
     8     3    37 1   
     9     3    38 1   
    10     4     5 2   
    11     5    39 1   
    12     6     7 1   
    13     6     8 1   
    14     6    40 1   
    15     7    19 1   
    16     7    41 1   
    17     7    42 1   
    18     8    20 1   
    19     8    21 1   
    20     8    43 1   
    21     9    24 1   
    22     9    27 1   
    23     9    28 1   
    24     9    44 1   
    25    10    14 2   
    26    10    31 1   
    27    10    32 1   
    28    11    32 ar  
    29    11    33 ar  
    30    11    45 1   
    31    12    13 ar  
    32    12    34 ar  
    33    12    61 1   
    34    13    32 ar  
    35    13    36 1   
    36    14    29 1   
    37    14    46 1   
    38    15    16 1   
    39    15    47 1   
    40    15    48 1   
    41    15    49 1   
    42    16    17 1   
    43    17    18 1   
    44    17    28 1   
    45    17    50 1   
    46    18    23 1   
    47    18    51 1   
    48    19    20 1   
    49    20    52 1   
    50    20    53 1   
    51    23    24 1   
    52    24    25 1   
    53    24    54 1   
    54    25    26 1   
    55    25    55 1   
    56    25    56 1   
    57    26    57 1   
    58    27    58 1   
    59    28    29 1   
    60    28    59 1   
    61    29    30 1   
    62    30    31 2   
    63    33    34 ar  
    64    33    60 1   
    65    34    35 1   
@<TRIPOS>SUBSTRUCTURE
     1 A1H         1 TEMP              0 ****  ****    0 ROOT
