@<TRIPOS>MOLECULE
A1H
  129   128     1     0     0
SMALL
abcg2


@<TRIPOS>ATOM
      1 C7           7.4570    -1.4160    -0.4980 c3         1 A1H      -0.075400
      2 C8           7.0070    -0.0510    -1.0060 c3         1 A1H      -0.073400
      3 C9           5.4950     0.1300    -0.9640 c3         1 A1H      -0.074400
      4 C5           9.4090    -2.9700    -0.0050 c3         1 A1H      -0.074400
      5 C6           8.9690    -1.6000    -0.5050 c3         1 A1H      -0.074400
      6 C4          10.9220    -3.1510     0.0090 c3         1 A1H      -0.074400
      7 C3          11.3590    -4.5240     0.5050 c3         1 A1H      -0.074400
      8 C2          12.8720    -4.7020     0.5290 c3         1 A1H      -0.074400
      9 C10          5.0260     1.4830    -1.4860 c3         1 A1H      -0.073400
     10 C11          3.5180     1.6630    -1.3810 c3         1 A1H      -0.074400
     11 C12          3.0230     2.9930    -1.9350 c3         1 A1H      -0.060400
     12 C13          1.5280     3.1560    -1.7190 c3         1 A1H      -0.141400
     13 C14          0.9610     4.4530    -2.2280 c          1 A1H       0.616100
     14 C17         -1.0610     5.6750    -2.4040 c3         1 A1H       0.177600
     15 C18         -2.3730     5.7240    -1.6500 c3         1 A1H       0.160300
     16 C19         -2.2440     5.9740    -0.1550 c3         1 A1H       0.220600
     17 C25          1.7500     6.5870     1.2880 c3         1 A1H       0.210600
     18 C26          3.0830     6.0180     0.8210 c3         1 A1H       0.139300
     19 C27          4.2200     6.8980     1.3170 c3         1 A1H       0.122600
     20 C33         -4.8940     3.0720    -2.2030 c3         1 A1H      -0.137400
     21 C34         -6.2450     2.7640    -1.5700 c3         1 A1H      -0.067400
     22 C35         -6.6730     1.3240    -1.8230 c3         1 A1H      -0.076400
     23 C36         -7.9840     0.9650    -1.1350 c3         1 A1H      -0.074400
     24 C37         -8.3590    -0.5030    -1.2930 c3         1 A1H      -0.074400
     25 C38         -9.6480    -0.8800    -0.5710 c3         1 A1H      -0.074400
     26 C39         -9.9640    -2.3680    -0.6470 c3         1 A1H      -0.074400
     27 C40        -11.2430    -2.7560     0.0850 c3         1 A1H      -0.074400
     28 C41        -11.5140    -4.2550     0.0650 c3         1 A1H      -0.074400
     29 C42        -12.7890    -4.6520     0.7970 c3         1 A1H      -0.074400
     30 C43        -13.0340    -6.1560     0.8050 c3         1 A1H      -0.074400
     31 C44        -14.3100    -6.5580     1.5340 c3         1 A1H      -0.074400
     32 C45        -14.5420    -8.0640     1.5540 c3         1 A1H      -0.075400
     33 O15          1.5940     5.3470    -2.7320 o          1 A1H      -0.526000
     34 O16         -0.3550     4.4910    -2.0560 os         1 A1H      -0.406100
     35 O20         -1.5780     4.9120     0.4850 os         1 A1H      -0.565400
     36 O22         -0.9890     6.2300     2.6260 o          1 A1H      -0.816500
     37 O23         -0.0210     3.8590     2.1360 o          1 A1H      -0.816500
     38 O24          0.6740     5.8870     0.7020 os         1 A1H      -0.606400
     39 O28          5.4330     6.4200     0.7850 oh         1 A1H      -0.646000
     40 O29          3.2530     4.6700     1.1920 oh         1 A1H      -0.636000
     41 O30         -3.0520     4.4920    -1.9190 os         1 A1H      -0.416100
     42 O32         -5.0730     5.4080    -1.6440 o          1 A1H      -0.514000
     43 P21         -0.4790     5.2010     1.6630 p5         1 A1H       1.392800
     44 H1           7.0810    -1.5660     0.5200 hc         1 A1H       0.036200
     45 H2           6.9940    -2.2000    -1.1080 hc         1 A1H       0.036200
     46 H3           7.4830     0.7340    -0.4080 hc         1 A1H       0.035700
     47 H4           7.3640     0.0910    -2.0320 hc         1 A1H       0.035700
     48 H5           5.0180    -0.6660    -1.5450 hc         1 A1H       0.036200
     49 H6           5.1460     0.0010     0.0670 hc         1 A1H       0.036200
     50 H7          12.9070    -6.2450     2.0280 hc         1 A1H       0.037200
     51 H8          12.8660    -6.8490     0.3860 hc         1 A1H       0.037200
     52 H10          9.0180    -3.1300     1.0060 hc         1 A1H       0.036700
     53 H11          8.9570    -3.7470    -0.6300 hc         1 A1H       0.036700
     54 H12          9.3490    -1.4440    -1.5210 hc         1 A1H       0.035700
     55 H13          9.4310    -0.8220     0.1120 hc         1 A1H       0.035700
     56 H14         11.3150    -2.9880    -1.0010 hc         1 A1H       0.036700
     57 H15         11.3740    -2.3770     0.6380 hc         1 A1H       0.036700
     58 H16         10.9600    -4.6900     1.5120 hc         1 A1H       0.036700
     59 H17         10.9130    -5.2980    -0.1280 hc         1 A1H       0.036700
     60 H18         13.3180    -3.9290     1.1650 hc         1 A1H       0.036200
     61 H19         13.2720    -4.5340    -0.4760 hc         1 A1H       0.036200
     62 H20          5.5240     2.2840    -0.9290 hc         1 A1H       0.037700
     63 H21          5.3390     1.5990    -2.5300 hc         1 A1H       0.037700
     64 H22          3.0150     0.8410    -1.9030 hc         1 A1H       0.040200
     65 H23          3.2210     1.5770    -0.3290 hc         1 A1H       0.040200
     66 H24          3.5590     3.8100    -1.4470 hc         1 A1H       0.049200
     67 H25          3.2600     3.0570    -3.0010 hc         1 A1H       0.049200
     68 H26          0.9810     2.3330    -2.1900 hc         1 A1H       0.086700
     69 H27          1.2930     3.0870    -0.6520 hc         1 A1H       0.086700
     70 H28         -1.2520     5.6800    -3.4810 h1         1 A1H       0.045200
     71 H29         -0.4860     6.5700    -2.1640 h1         1 A1H       0.045200
     72 H30         -2.9360     6.5670    -2.0650 h1         1 A1H       0.046700
     73 H31         -1.7280     6.9330    -0.0380 h1         1 A1H       0.031700
     74 H32         -3.2410     6.1030     0.2760 h1         1 A1H       0.031700
     75 H33          1.7110     6.5620     2.3850 h1         1 A1H       0.018700
     76 H34          1.6890     7.6420     0.9990 h1         1 A1H       0.018700
     77 H35          3.0960     6.0240    -0.2750 h1         1 A1H       0.095700
     78 H36          4.0240     7.9330     1.0080 h1         1 A1H       0.012200
     79 H37          4.2280     6.8920     2.4170 h1         1 A1H       0.012200
     80 H38         -4.9630     2.9910    -3.2940 hc         1 A1H       0.068700
     81 H39         -4.1520     2.3320    -1.8970 hc         1 A1H       0.068700
     82 H40         -6.1890     2.9360    -0.4910 hc         1 A1H       0.053200
     83 H41         -7.0040     3.4500    -1.9530 hc         1 A1H       0.053200
     84 H42         -6.7610     1.1480    -2.9000 hc         1 A1H       0.036200
     85 H43         -5.8870     0.6480    -1.4690 hc         1 A1H       0.036200
     86 H44         -7.9060     1.2020    -0.0690 hc         1 A1H       0.038700
     87 H45         -8.7890     1.5960    -1.5280 hc         1 A1H       0.038700
     88 H46         -8.4530    -0.7480    -2.3570 hc         1 A1H       0.036700
     89 H47         -7.5410    -1.1240    -0.9120 hc         1 A1H       0.036700
     90 H48         -9.5710    -0.5820     0.4800 hc         1 A1H       0.037200
     91 H49        -10.4820    -0.3050    -0.9890 hc         1 A1H       0.037200
     92 H50        -10.0400    -2.6740    -1.6960 hc         1 A1H       0.036700
     93 H51         -9.1240    -2.9340    -0.2280 hc         1 A1H       0.036700
     94 H52        -11.1820    -2.4140     1.1250 hc         1 A1H       0.037200
     95 H53        -12.0920    -2.2250    -0.3580 hc         1 A1H       0.037200
     96 H54        -11.5690    -4.6010    -0.9730 hc         1 A1H       0.036700
     97 H55        -10.6630    -4.7800     0.5130 hc         1 A1H       0.036700
     98 H56        -12.7430    -4.2870     1.8290 hc         1 A1H       0.036700
     99 H57        -13.6450    -4.1460     0.3360 hc         1 A1H       0.036700
    100 H58        -13.0750    -6.5230    -0.2260 hc         1 A1H       0.036700
    101 H59        -12.1780    -6.6580     1.2710 hc         1 A1H       0.036700
    102 H60        -14.2730    -6.1830     2.5630 hc         1 A1H       0.036700
    103 H61        -15.1670    -6.0650     1.0630 hc         1 A1H       0.036700
    104 H62        -14.5750    -8.4400     0.5260 hc         1 A1H       0.037200
    105 H63        -13.6860    -8.5560     2.0290 hc         1 A1H       0.037200
    106 H66          6.1440     6.9700     1.1240 ho         1 A1H       0.423000
    107 H67          3.1410     4.5930     2.1470 ho         1 A1H       0.440000
    108 C15        -15.8190    -8.4690     2.2800 c3         1 A1H      -0.075400
    109 C16        -16.0370    -9.9760     2.2990 c3         1 A1H      -0.088100
    110 H64        -15.7870    -8.0900     3.3060 hc         1 A1H       0.036200
    111 H68        -16.6750    -7.9810     1.8030 hc         1 A1H       0.036200
    112 H69        -16.1070   -10.3780     1.2870 hc         1 A1H       0.030367
    113 H70        -15.2130   -10.4870     2.8000 hc         1 A1H       0.030367
    114 H71        -16.9560   -10.2420     2.8230 hc         1 A1H       0.030367
    115 C20         14.8220    -6.2520     1.0500 c3         1 A1H      -0.074400
    116 C21         15.2600    -7.6260     1.5400 c3         1 A1H      -0.075400
    117 C22         16.7730    -7.8030     1.5670 c3         1 A1H      -0.075400
    118 C23         17.2000    -9.1810     2.0530 c3         1 A1H      -0.088100
    119 H9          15.2240    -6.0800     0.0460 hc         1 A1H       0.036200
    120 H72         15.2650    -5.4800     1.6890 hc         1 A1H       0.036200
    121 H73         14.8590    -7.7990     2.5460 hc         1 A1H       0.036700
    122 H74         14.8170    -8.3980     0.9020 hc         1 A1H       0.036700
    123 H75         17.1740    -7.6280     0.5630 hc         1 A1H       0.036200
    124 H76         17.2160    -7.0350     2.2070 hc         1 A1H       0.036200
    125 H77         16.8370    -9.3710     3.0650 hc         1 A1H       0.030367
    126 H78         16.8020    -9.9670     1.4090 hc         1 A1H       0.030367
    127 H79         18.2850    -9.2850     2.0670 hc         1 A1H       0.030367
    128 C31         -4.3810     4.4510    -1.8850 c          1 A1H       0.601100
    129 C1          13.3090    -6.0750     1.0230 c3         1 A1H      -0.074400
@<TRIPOS>BOND
     1     1     2 1   
     2     1     5 1   
     3     1    44 1   
     4     1    45 1   
     5     2     3 1   
     6     2    46 1   
     7     2    47 1   
     8     3     9 1   
     9     3    48 1   
    10     3    49 1   
    11     4     5 1   
    12     4     6 1   
    13     4    52 1   
    14     4    53 1   
    15     5    54 1   
    16     5    55 1   
    17     6     7 1   
    18     6    56 1   
    19     6    57 1   
    20     7     8 1   
    21     7    58 1   
    22     7    59 1   
    23     8    60 1   
    24     8    61 1   
    25     8   129 1   
    26     9    10 1   
    27     9    62 1   
    28     9    63 1   
    29    10    11 1   
    30    10    64 1   
    31    10    65 1   
    32    11    12 1   
    33    11    66 1   
    34    11    67 1   
    35    12    13 1   
    36    12    68 1   
    37    12    69 1   
    38    13    33 2   
    39    13    34 1   
    40    14    15 1   
    41    14    34 1   
    42    14    70 1   
    43    14    71 1   
    44    15    16 1   
    45    15    41 1   
    46    15    72 1   
    47    16    35 1   
    48    16    73 1   
    49    16    74 1   
    50    17    18 1   
    51    17    38 1   
    52    17    75 1   
    53    17    76 1   
    54    18    19 1   
    55    18    40 1   
    56    18    77 1   
    57    19    39 1   
    58    19    78 1   
    59    19    79 1   
    60    20    21 1   
    61    20    80 1   
    62    20    81 1   
    63    20   128 1   
    64    21    22 1   
    65    21    82 1   
    66    21    83 1   
    67    22    23 1   
    68    22    84 1   
    69    22    85 1   
    70    23    24 1   
    71    23    86 1   
    72    23    87 1   
    73    24    25 1   
    74    24    88 1   
    75    24    89 1   
    76    25    26 1   
    77    25    90 1   
    78    25    91 1   
    79    26    27 1   
    80    26    92 1   
    81    26    93 1   
    82    27    28 1   
    83    27    94 1   
    84    27    95 1   
    85    28    29 1   
    86    28    96 1   
    87    28    97 1   
    88    29    30 1   
    89    29    98 1   
    90    29    99 1   
    91    30    31 1   
    92    30   100 1   
    93    30   101 1   
    94    31    32 1   
    95    31   102 1   
    96    31   103 1   
    97    32   104 1   
    98    32   105 1   
    99    32   108 1   
   100    35    43 1   
   101    36    43 1   
   102    37    43 1   
   103    38    43 1   
   104    39   106 1   
   105    40   107 1   
   106    41   128 1   
   107    42   128 2   
   108    50   129 1   
   109    51   129 1   
   110   108   109 1   
   111   108   110 1   
   112   108   111 1   
   113   109   112 1   
   114   109   113 1   
   115   109   114 1   
   116   115   116 1   
   117   115   119 1   
   118   115   120 1   
   119   115   129 1   
   120   116   117 1   
   121   116   121 1   
   122   116   122 1   
   123   117   118 1   
   124   117   123 1   
   125   117   124 1   
   126   118   125 1   
   127   118   126 1   
   128   118   127 1   
@<TRIPOS>SUBSTRUCTURE
     1 A1H         1 TEMP              0 ****  ****    0 ROOT
