@<TRIPOS>MOLECULE
A1H
   65    68     1     0     0
SMALL
abcg2


@<TRIPOS>ATOM
      1 C2          14.3840   -19.5160   -25.0260 c3         1 A1H       0.359300
      2 C5          14.1340   -18.3900   -24.0680 ca         1 A1H      -0.171300
      3 C6          13.4030   -18.6620   -22.9160 ca         1 A1H      -0.064000
      4 C7          13.1860   -17.6480   -21.9910 ca         1 A1H      -0.060000
      5 C8          13.6790   -16.3680   -22.2410 ca         1 A1H      -0.110000
      6 C12         12.4140   -18.9780   -20.0870 c          1 A1H       0.671100
      7 C15         11.4920   -19.9080   -18.0970 cc         1 A1H       0.375900
      8 C16         11.9170   -21.2090   -18.0740 cd         1 A1H      -0.245000
      9 C19         10.7470   -23.9750   -17.4610 ca         1 A1H       0.260300
     10 C21          8.9020   -24.3390   -18.7370 ca         1 A1H       0.361900
     11 C23         10.6580   -25.9410   -18.7930 ca         1 A1H      -0.043000
     12 C24         11.3480   -25.1440   -17.8930 ca         1 A1H      -0.117000
     13 C31          8.1480   -27.6080   -19.8590 ca         1 A1H       0.382300
     14 C33          7.9580   -29.3340   -18.2380 c3         1 A1H       0.172600
     15 C34          8.3850   -29.5330   -16.8010 c3         1 A1H       0.159800
     16 C36          8.5420   -28.5580   -14.6240 c3         1 A1H       0.148600
     17 C37          6.4130   -28.7220   -15.6800 c3         1 A1H       0.148600
     18 F1          14.8950   -19.0950   -26.1860 f          1 A1H      -0.106333
     19 F3          13.2610   -20.1880   -25.3160 f          1 A1H      -0.106333
     20 F4          15.2440   -20.4120   -24.5200 f          1 A1H      -0.106333
     21 C9          14.3910   -16.1110   -23.3960 ca         1 A1H      -0.085000
     22 C10         14.6350   -17.1220   -24.3160 ca         1 A1H      -0.051000
     23 N11         12.4460   -17.8400   -20.8130 ns         1 A1H      -0.126000
     24 O13         12.9540   -20.0240   -20.3670 o          1 A1H      -0.564100
     25 N14         11.6590   -18.8610   -18.9150 ns         1 A1H      -0.469400
     26 N17         11.3490   -21.6920   -16.9470 na         1 A1H       0.282800
     27 N20          9.5500   -23.5790   -17.8700 nb         1 A1H      -0.682000
     28 C22          9.4070   -25.5370   -19.2410 cp         1 A1H       0.005000
     29 C25          8.6290   -26.3340   -20.2070 cp         1 A1H      -0.220000
     30 C26          8.3210   -25.8940   -21.4860 ca         1 A1H       0.175300
     31 N28          7.5950   -26.6490   -22.3230 nb         1 A1H      -0.204000
     32 C29          7.1950   -27.8210   -21.8810 ca         1 A1H       0.186900
     33 N30          7.4370   -28.3460   -20.6880 nb         1 A1H      -0.266000
     34 N35          7.8350   -28.5540   -15.8860 n3         1 A1H      -0.715600
     35 N38         10.6470   -20.8470   -16.3120 n2         1 A1H      -0.105100
     36 O39         10.7340   -19.7280   -17.0140 os         1 A1H      -0.043700
     37 H1          12.9970   -19.6490   -22.7510 ha         1 A1H       0.148000
     38 H2          13.5020   -15.5750   -21.5250 ha         1 A1H       0.122000
     39 H3          12.5360   -21.8010   -18.7210 h4         1 A1H       0.247000
     40 H4          10.9520   -23.1000   -15.4930 h1         1 A1H       0.117200
     41 H5          12.4890   -23.3110   -16.3500 h1         1 A1H       0.117200
     42 H6           7.9240   -23.9870   -19.0510 h4         1 A1H       0.041100
     43 H7          11.1030   -26.8580   -19.1570 ha         1 A1H       0.147000
     44 H8          12.3330   -25.4230   -17.5430 ha         1 A1H       0.134000
     45 H9           8.7740   -24.5660   -23.0890 hc         1 A1H       0.060033
     46 H10          8.1210   -23.7700   -21.6630 hc         1 A1H       0.060033
     47 H11          9.7870   -24.3260   -21.6540 hc         1 A1H       0.060033
     48 H12          6.8750   -29.3940   -18.3590 h1         1 A1H       0.060700
     49 H13          8.4010   -30.1150   -18.8600 h1         1 A1H       0.060700
     50 H14          8.1170   -30.5670   -16.5230 h1         1 A1H       0.046700
     51 H15          9.4760   -29.4770   -16.7520 h1         1 A1H       0.046700
     52 H16          8.1550   -27.7660   -13.9810 h1         1 A1H       0.033700
     53 H17          8.4530   -29.5060   -14.0720 h1         1 A1H       0.033700
     54 H18          9.6030   -28.3650   -14.7860 h1         1 A1H       0.033700
     55 H19          6.0440   -27.9480   -15.0060 h1         1 A1H       0.033700
     56 H20          5.8620   -28.6210   -16.6150 h1         1 A1H       0.033700
     57 H21          6.1540   -29.6990   -15.2420 h1         1 A1H       0.033700
     58 H22         14.7690   -15.1140   -23.5800 ha         1 A1H       0.139000
     59 H23         15.2060   -16.9040   -25.2080 ha         1 A1H       0.150000
     60 H24         12.0260   -17.0060   -20.4260 hn         1 A1H       0.168000
     61 H25         11.2130   -17.9870   -18.6580 hn         1 A1H       0.369500
     62 H26          6.6070   -28.4270   -22.5620 h5         1 A1H       0.062100
     63 C18         11.4340   -23.0720   -16.4700 c3         1 A1H       0.014300
     64 O32          8.4280   -28.0480   -18.6490 os         1 A1H      -0.446300
     65 C27          8.7840   -24.5690   -22.0010 c3         1 A1H      -0.157400
@<TRIPOS>BOND
     1     1     2 1   
     2     1    18 1   
     3     1    19 1   
     4     1    20 1   
     5     2     3 ar  
     6     2    22 ar  
     7     3     4 ar  
     8     3    37 1   
     9     4     5 ar  
    10     4    23 1   
    11     5    21 ar  
    12     5    38 1   
    13     6    23 1   
    14     6    24 2   
    15     6    25 1   
    16     7     8 2   
    17     7    25 1   
    18     7    36 1   
    19     8    26 1   
    20     8    39 1   
    21     9    12 ar  
    22     9    27 ar  
    23     9    63 1   
    24    10    27 ar  
    25    10    28 ar  
    26    10    42 1   
    27    11    12 ar  
    28    11    28 ar  
    29    11    43 1   
    30    12    44 1   
    31    13    29 ar  
    32    13    33 ar  
    33    13    64 1   
    34    14    15 1   
    35    14    48 1   
    36    14    49 1   
    37    14    64 1   
    38    15    34 1   
    39    15    50 1   
    40    15    51 1   
    41    16    34 1   
    42    16    52 1   
    43    16    53 1   
    44    16    54 1   
    45    17    34 1   
    46    17    55 1   
    47    17    56 1   
    48    17    57 1   
    49    21    22 ar  
    50    21    58 1   
    51    22    59 1   
    52    23    60 1   
    53    25    61 1   
    54    26    35 2   
    55    26    63 1   
    56    28    29 1   
    57    29    30 ar  
    58    30    31 ar  
    59    30    65 1   
    60    31    32 ar  
    61    32    33 ar  
    62    32    62 1   
    63    35    36 1   
    64    40    63 1   
    65    41    63 1   
    66    45    65 1   
    67    46    65 1   
    68    47    65 1   
@<TRIPOS>SUBSTRUCTURE
     1 A1H         1 TEMP              0 ****  ****    0 ROOT
