@<TRIPOS>MOLECULE
A1H
   37    39     1     0     0
SMALL
abcg2


@<TRIPOS>ATOM
      1 C10        -29.5370    15.5340    19.0630 ca         1 A1H       0.112100
      2 C12        -27.6850    15.7390    17.5840 c3         1 A1H       0.209900
      3 C13        -27.2110    16.6890    16.5250 ca         1 A1H      -0.093300
      4 C14        -26.2440    17.6460    16.8120 ca         1 A1H      -0.085000
      5 C02        -28.4670    10.4410    22.1990 c3         1 A1H       0.163600
      6 C03        -28.4410    11.6040    21.2270 c3         1 A1H      -0.006200
      7 C04        -29.6030    12.5320    21.3700 cc         1 A1H      -0.145400
      8 C05        -30.6760    12.4350    22.2160 cd         1 A1H      -0.160100
      9 C07        -31.0140    14.3020    21.0530 ca         1 A1H      -0.078200
     10 C08        -29.8060    13.7300    20.6150 ca         1 A1H      -0.061800
     11 C09        -29.0570    14.3560    19.6050 ca         1 A1H      -0.157000
     12 C15        -25.8240    18.5400    15.8360 ca         1 A1H      -0.115500
     13 C16        -26.3750    18.4880    14.5630 ca         1 A1H      -0.100000
     14 C17        -27.3450    17.5370    14.2690 ca         1 A1H      -0.115500
     15 C18        -27.7590    16.6430    15.2460 ca         1 A1H      -0.085000
     16 C19        -30.7540    16.0910    19.5120 ca         1 A1H      -0.115000
     17 C20        -31.4970    15.4890    20.5040 ca         1 A1H      -0.094000
     18 N06        -31.5200    13.4920    22.0290 na         1 A1H      -0.220700
     19 O01        -27.3180     9.6550    21.9750 oh         1 A1H      -0.663000
     20 O11        -28.9110    16.2390    18.0870 os         1 A1H      -0.345100
     21 H121       -27.8240    14.7360    17.1630 h1         1 A1H       0.039200
     22 H122       -26.9420    15.6600    18.3870 h1         1 A1H       0.039200
     23 H141       -25.8110    17.6890    17.8050 ha         1 A1H       0.115000
     24 H021       -29.3860     9.8580    22.0500 h1         1 A1H       0.015700
     25 H022       -28.4980    10.8240    23.2270 h1         1 A1H       0.015700
     26 H031       -28.4070    11.2120    20.2040 hc         1 A1H       0.058700
     27 H032       -27.5090    12.1630    21.3660 hc         1 A1H       0.058700
     28 H051       -30.9070    11.6800    22.9510 h4         1 A1H       0.208000
     29 H091       -28.1270    13.9090    19.2770 ha         1 A1H       0.120000
     30 H151       -25.0670    19.2770    16.0690 ha         1 A1H       0.113000
     31 H161       -26.0490    19.1830    13.8000 ha         1 A1H       0.112000
     32 H171       -27.7760    17.4890    13.2770 ha         1 A1H       0.113000
     33 H181       -28.5100    15.8970    15.0100 ha         1 A1H       0.115000
     34 H191       -31.1000    17.0130    19.0620 ha         1 A1H       0.126000
     35 H201       -32.4270    15.9310    20.8380 ha         1 A1H       0.115000
     36 H061       -32.3790    13.6430    22.5320 hn         1 A1H       0.350000
     37 H011       -27.3520     8.8950    22.5630 ho         1 A1H       0.442000
@<TRIPOS>BOND
     1     1    11 ar  
     2     1    16 ar  
     3     1    20 1   
     4     2     3 1   
     5     2    20 1   
     6     2    21 1   
     7     2    22 1   
     8     3     4 ar  
     9     3    15 ar  
    10     4    12 ar  
    11     4    23 1   
    12     5     6 1   
    13     5    19 1   
    14     5    24 1   
    15     5    25 1   
    16     6     7 1   
    17     6    26 1   
    18     6    27 1   
    19     7     8 2   
    20     7    10 1   
    21     8    18 1   
    22     8    28 1   
    23     9    10 ar  
    24     9    17 ar  
    25     9    18 1   
    26    10    11 ar  
    27    11    29 1   
    28    12    13 ar  
    29    12    30 1   
    30    13    14 ar  
    31    13    31 1   
    32    14    15 ar  
    33    14    32 1   
    34    15    33 1   
    35    16    17 ar  
    36    16    34 1   
    37    17    35 1   
    38    18    36 1   
    39    19    37 1   
@<TRIPOS>SUBSTRUCTURE
     1 A1H         1 TEMP              0 ****  ****    0 ROOT
