@<TRIPOS>MOLECULE
A1H
   49    51     1     0     0
SMALL
abcg2


@<TRIPOS>ATOM
      1 C1         -21.0500     3.1270    19.3880 c3         1 A1H       0.101000
      2 C2         -20.4300     5.4120    18.7800 c          1 A1H       0.633600
      3 O2         -23.1020    14.3330    13.2290 os         1 A1H      -0.321100
      4 C3         -20.7480     6.4990    17.9240 cc         1 A1H      -0.351600
      5 O3         -22.9380     3.2110    17.4720 o          1 A1H      -0.556000
      6 C4         -20.9080     8.3830    16.8230 cc         1 A1H       0.522300
      7 C5         -20.6230     9.7390    16.4240 ce         1 A1H      -0.312800
      8 C7         -21.2010    11.7700    15.0850 ca         1 A1H      -0.078800
      9 C6         -21.4000    10.4090    15.5590 cf         1 A1H      -0.072200
     10 N          -21.2750     4.3170    18.5620 n          1 A1H      -0.375400
     11 C          -20.0780     2.1480    18.7550 c3         1 A1H      -0.109100
     12 O          -19.5480     5.3950    19.6200 o          1 A1H      -0.539000
     13 C10        -20.9500    14.3980    14.1270 ca         1 A1H       0.130100
     14 C11        -19.7490    16.4120    13.8120 c3         1 A1H       0.144900
     15 C12        -22.1410    13.6750    13.9020 ca         1 A1H       0.108100
     16 C13        -24.3220    13.6640    12.9830 c3         1 A1H       0.144900
     17 C14        -22.2460    12.3790    14.3700 ca         1 A1H      -0.149000
     18 C15        -21.7520     6.4500    16.9910 cd         1 A1H       0.442900
     19 C16        -23.5800     5.3120    15.8240 c3         1 A1H       0.117000
     20 C17        -24.9010     5.7720    16.4130 c3         1 A1H      -0.113100
     21 C18        -22.2810     4.2260    17.6020 c          1 A1H       0.623000
     22 C8         -20.0350    12.4960    15.3000 ca         1 A1H      -0.081000
     23 C9         -19.9120    13.7940    14.8220 ca         1 A1H      -0.180000
     24 N1         -20.2160     7.7540    17.7910 na         1 A1H      -0.244500
     25 N2         -21.8580     7.6000    16.3130 nd         1 A1H      -0.713000
     26 N3         -22.5010     5.3250    16.8070 n          1 A1H      -0.363300
     27 O1         -20.9210    15.6440    13.6310 os         1 A1H      -0.317100
     28 H1         -20.6740     3.4650    20.3500 h1         1 A1H       0.069200
     29 H2         -22.0120     2.6530    19.5690 h1         1 A1H       0.069200
     30 H3         -19.7520    10.1970    16.8780 ha         1 A1H       0.181000
     31 H4         -22.2800     9.9040    15.1740 ha         1 A1H       0.196000
     32 H5         -19.9430     1.2890    19.4120 hc         1 A1H       0.045033
     33 H6         -20.4450     1.7800    17.7970 hc         1 A1H       0.045033
     34 H7         -19.1010     2.6040    18.5970 hc         1 A1H       0.045033
     35 H8         -19.9350    17.3740    13.3410 h1         1 A1H       0.042033
     36 H9         -19.5260    16.5760    14.8690 h1         1 A1H       0.042033
     37 H10        -18.8800    15.9490    13.3360 h1         1 A1H       0.042033
     38 H11        -24.9590    14.3690    12.4540 h1         1 A1H       0.041367
     39 H12        -24.1850    12.7780    12.3570 h1         1 A1H       0.041367
     40 H13        -24.8200    13.3670    13.9100 h1         1 A1H       0.041367
     41 H14        -23.1500    11.8090    14.1970 ha         1 A1H       0.123000
     42 H15        -23.6610     4.3050    15.4220 h1         1 A1H       0.070700
     43 H16        -23.2760     5.9640    15.0070 h1         1 A1H       0.070700
     44 H17        -25.6730     5.7580    15.6430 hc         1 A1H       0.046033
     45 H18        -25.2240     5.1190    17.2230 hc         1 A1H       0.046033
     46 H19        -24.8300     6.7890    16.7980 hc         1 A1H       0.046033
     47 H20        -19.1990    12.0590    15.8290 ha         1 A1H       0.113000
     48 H21        -18.9860    14.3250    15.0000 ha         1 A1H       0.121000
     49 H22        -19.4580     8.1440    18.3330 hn         1 A1H       0.375000
@<TRIPOS>BOND
     1     1    10 1   
     2     1    11 1   
     3     1    28 1   
     4     1    29 1   
     5     2     4 1   
     6     2    10 1   
     7     2    12 2   
     8     3    15 1   
     9     3    16 1   
    10     4    18 2   
    11     4    24 1   
    12     5    21 2   
    13     6     7 1   
    14     6    24 1   
    15     6    25 2   
    16     7     9 2   
    17     7    30 1   
    18     8     9 1   
    19     8    17 ar  
    20     8    22 ar  
    21     9    31 1   
    22    10    21 1   
    23    11    32 1   
    24    11    33 1   
    25    11    34 1   
    26    13    15 ar  
    27    13    23 ar  
    28    13    27 1   
    29    14    27 1   
    30    14    35 1   
    31    14    36 1   
    32    14    37 1   
    33    15    17 ar  
    34    16    38 1   
    35    16    39 1   
    36    16    40 1   
    37    17    41 1   
    38    18    25 1   
    39    18    26 1   
    40    19    20 1   
    41    19    26 1   
    42    19    42 1   
    43    19    43 1   
    44    20    44 1   
    45    20    45 1   
    46    20    46 1   
    47    21    26 1   
    48    22    23 ar  
    49    22    47 1   
    50    23    48 1   
    51    24    49 1   
@<TRIPOS>SUBSTRUCTURE
     1 A1H         1 TEMP              0 ****  ****    0 ROOT
