@<TRIPOS>MOLECULE
A1H
   20    21     1     0     0
SMALL
abcg2


@<TRIPOS>ATOM
      1 C01        -73.4650    62.8110    21.0360 c6         1 A1H       0.154600
      2 C02        -72.8420    61.7840    20.0960 c6         1 A1H       0.115300
      3 C03        -71.8170    62.4900    19.1930 c5         1 A1H       0.086300
      4 C04        -70.7660    63.1660    20.0670 c5         1 A1H       0.106300
      5 C05        -71.6540    64.2870    20.5960 c5         1 A1H       0.139300
      6 C06        -72.3470    64.7340    19.3110 c5         1 A1H       0.116600
      7 O01        -72.5390    63.7480    21.5580 os         1 A1H      -0.436000
      8 O02        -72.2400    60.7600    20.8550 oh         1 A1H      -0.709000
      9 O03        -72.4520    63.5590    18.5080 os         1 A1H      -0.446000
     10 O04        -69.7120    63.7320    19.3330 oh         1 A1H      -0.705000
     11 H011       -74.2770    63.3210    20.5060 h1         1 A1H       0.063200
     12 H012       -73.9170    62.3040    21.8910 h1         1 A1H       0.063200
     13 H021       -73.6510    61.3810    19.4700 h1         1 A1H       0.051700
     14 H031       -71.4000    61.7960    18.4560 h1         1 A1H       0.075700
     15 H041       -70.4020    62.5170    20.8710 h1         1 A1H       0.080700
     16 H051       -71.1060    65.0960    21.0820 h1         1 A1H       0.107700
     17 H071       -73.3370    65.1600    19.4980 h1         1 A1H       0.062700
     18 H072       -71.7500    65.4900    18.7950 h1         1 A1H       0.062700
     19 H101       -71.8950    60.0940    20.2500 ho         1 A1H       0.503000
     20 H081       -69.2150    63.0220    18.9150 ho         1 A1H       0.509000
@<TRIPOS>BOND
     1     1     2 1   
     2     1     7 1   
     3     1    11 1   
     4     1    12 1   
     5     2     3 1   
     6     2     8 1   
     7     2    13 1   
     8     3     4 1   
     9     3     9 1   
    10     3    14 1   
    11     4     5 1   
    12     4    10 1   
    13     4    15 1   
    14     5     6 1   
    15     5     7 1   
    16     5    16 1   
    17     6     9 1   
    18     6    17 1   
    19     6    18 1   
    20     8    19 1   
    21    10    20 1   
@<TRIPOS>SUBSTRUCTURE
     1 A1H         1 TEMP              0 ****  ****    0 ROOT
