@<TRIPOS>MOLECULE
A1H
   40    41     1     0     0
SMALL
abcg2


@<TRIPOS>ATOM
      1 N1          15.1530   -31.1000    12.8960 nb         1 A1H      -0.700000
      2 N3          10.5640   -31.0600    15.1260 n7         1 A1H      -0.826400
      3 C4          12.4130   -31.1170    13.4440 ca         1 A1H      -0.090300
      4 C5          12.8840   -31.2700    12.1300 ca         1 A1H      -0.044300
      5 C6          14.2550   -31.2760    11.9320 ca         1 A1H       0.266900
      6 C7           9.1190   -31.1950    15.1670 c5         1 A1H       0.019500
      7 C8           8.5840   -31.2520    16.6140 c          1 A1H       0.732000
      8 C10          7.4790   -32.1350    13.4690 c3         1 A1H      -0.073600
      9 C2          14.7260   -30.8400    14.1200 ca         1 A1H       0.244300
     10 C2A         15.7440   -30.5700    15.1860 c3         1 A1H      -0.102400
     11 C3          13.3550   -30.8070    14.4310 ca         1 A1H       0.117100
     12 O3          13.0400   -30.4470    15.6870 oh         1 A1H      -0.591100
     13 C4A         10.9390   -31.1980    13.7390 c5         1 A1H       0.349800
     14 C5A         11.9900   -31.2680    10.9120 c3         1 A1H       0.276900
     15 O4P         11.7410   -29.9380    10.5420 os         1 A1H      -0.581400
     16 P           10.1210   -29.4540    10.2330 p5         1 A1H       1.271900
     17 O1P         10.3440   -28.0640     9.6580 o          1 A1H      -0.918167
     18 O2P          9.5790   -30.4950     9.2600 o          1 A1H      -0.918167
     19 O3P          9.4420   -29.4650    11.6100 o          1 A1H      -0.918167
     20 S1          10.1590   -32.8160    13.2590 ss         1 A1H      -0.620000
     21 C9           8.6940   -32.4590    14.3280 c5         1 A1H       0.140000
     22 C11          8.4360   -33.7030    15.1730 c3         1 A1H      -0.073600
     23 O12          7.3830   -30.9580    16.7580 o          1 A1H      -0.748500
     24 O14          9.3910   -31.6110    17.4910 o          1 A1H      -0.748500
     25 HN3         10.9260   -31.8470    15.6630 hn         1 A1H       0.411000
     26 H6          14.6470   -31.4230    10.9300 h4         1 A1H      -0.001900
     27 H7           8.6950   -30.3200    14.6670 h1         1 A1H       0.104700
     28 H10          6.6450   -31.8330    14.1060 hc         1 A1H       0.033867
     29 H101         7.6970   -31.3190    12.7790 hc         1 A1H       0.033867
     30 H102         7.1600   -33.0000    12.8860 hc         1 A1H       0.033867
     31 H2A2        16.7450   -30.6880    14.7770 hc         1 A1H       0.018367
     32 H2A3        15.6550   -29.5550    15.5790 hc         1 A1H       0.018367
     33 H2A1        15.6380   -31.2480    16.0340 hc         1 A1H       0.018367
     34 H2          12.0640   -30.3410    15.7470 ho         1 A1H       0.525000
     35 H4A         10.4220   -30.4360    13.1420 h2         1 A1H       0.216700
     36 H5A1        12.5140   -31.7980    10.1050 h1         1 A1H       0.011700
     37 H5A2        11.0700   -31.8280    11.0950 h1         1 A1H       0.011700
     38 H11          7.5320   -33.5800    15.7720 hc         1 A1H       0.033867
     39 H111         8.2880   -34.5750    14.5340 hc         1 A1H       0.033867
     40 H112         9.2670   -33.9160    15.8440 hc         1 A1H       0.033867
@<TRIPOS>BOND
     1     1     5 ar  
     2     1     9 ar  
     3     2     6 1   
     4     2    13 1   
     5     2    25 1   
     6     3     4 ar  
     7     3    11 ar  
     8     3    13 1   
     9     4     5 ar  
    10     4    14 1   
    11     5    26 1   
    12     6     7 1   
    13     6    21 1   
    14     6    27 1   
    15     7    23 1   
    16     7    24 1   
    17     8    21 1   
    18     8    28 1   
    19     8    29 1   
    20     8    30 1   
    21     9    10 1   
    22     9    11 ar  
    23    10    31 1   
    24    10    32 1   
    25    10    33 1   
    26    11    12 1   
    27    12    34 1   
    28    13    20 1   
    29    13    35 1   
    30    14    15 1   
    31    14    36 1   
    32    14    37 1   
    33    15    16 1   
    34    16    17 1   
    35    16    18 1   
    36    16    19 1   
    37    20    21 1   
    38    21    22 1   
    39    22    38 1   
    40    22    39 1   
    41    22    40 1   
@<TRIPOS>SUBSTRUCTURE
     1 A1H         1 TEMP              0 ****  ****    0 ROOT
