@<TRIPOS>MOLECULE
A1H
   51    53     1     0     0
SMALL
abcg2


@<TRIPOS>ATOM
      1 C01          3.8960    12.7150   -13.3490 ca         1 A1H      -0.072000
      2 C02          5.1690    12.6250   -12.8340 ca         1 A1H      -0.103000
      3 C03          6.2670    12.3480   -13.6550 ca         1 A1H      -0.113000
      4 C04          6.0920    12.1550   -15.0150 ca         1 A1H      -0.012000
      5 C05          4.7860    12.2410   -15.5600 ca         1 A1H       0.142400
      6 C06          3.7050    12.5210   -14.7190 ca         1 A1H      -0.176600
      7 C07          2.3780    12.6210   -15.3140 c          1 A1H       0.578600
      8 N12          7.0990    11.8830   -15.9300 ns         1 A1H      -0.120000
      9 C13          3.2930    11.8950   -18.8690 ca         1 A1H      -0.157900
     10 C14          4.3730    12.0860   -19.7280 ca         1 A1H      -0.071500
     11 C15          2.0800    11.4740   -19.4150 ca         1 A1H      -0.071500
     12 C16          1.9590    11.2610   -20.7760 ca         1 A1H      -0.116500
     13 C17          3.0310    11.4600   -21.6490 ca         1 A1H      -0.037300
     14 C18          4.2390    11.8770   -21.0910 ca         1 A1H      -0.116500
     15 O21          8.9860    11.8310   -14.6480 o          1 A1H      -0.592100
     16 C09          3.4720    12.1190   -17.4260 cc         1 A1H       0.568500
     17 C19          2.8490    11.2140   -23.1420 c3         1 A1H      -0.004700
     18 C20          8.4250    11.7450   -15.7250 c          1 A1H       0.604100
     19 C22          9.2290    11.5010   -16.9950 c3         1 A1H       0.086300
     20 C23         10.0510    12.7510   -17.2950 c3         1 A1H       0.123600
     21 C26          4.1270    11.4890   -23.9350 c3         1 A1H      -0.083767
     22 C27          1.7420    12.1340   -23.6740 c3         1 A1H      -0.083767
     23 C28          2.4490     9.7490   -23.3670 c3         1 A1H      -0.083767
     24 N08          4.6470    12.0330   -16.9050 nd         1 A1H      -0.653100
     25 N10          2.3710    12.4170   -16.6790 ns         1 A1H      -0.426400
     26 O11          1.3520    12.8700   -14.7110 o          1 A1H      -0.534000
     27 O24          8.3750    11.1800   -18.0600 oh         1 A1H      -0.668000
     28 O25         10.7690    12.4930   -18.4800 oh         1 A1H      -0.673000
     29 H011         3.0520    12.9320   -12.7090 ha         1 A1H       0.137000
     30 H021         5.3350    12.7710   -11.7750 ha         1 A1H       0.121000
     31 H031         7.2500    12.2870   -13.2180 ha         1 A1H       0.151000
     32 H121         6.7760    11.7750   -16.8860 hn         1 A1H       0.204000
     33 H141         5.3250    12.4090   -19.3300 ha         1 A1H       0.123000
     34 H151         1.2180    11.2740   -18.7890 ha         1 A1H       0.123000
     35 H161         1.0030    10.9250   -21.1570 ha         1 A1H       0.118500
     36 H181         5.1020    12.0490   -21.7180 ha         1 A1H       0.118500
     37 H221         9.9180    10.6720   -16.7780 h1         1 A1H       0.081700
     38 H231         9.3750    13.6070   -17.4120 h1         1 A1H       0.046200
     39 H232        10.7140    12.9620   -16.4500 h1         1 A1H       0.046200
     40 H262         3.9440    11.3040   -24.9950 hc         1 A1H       0.037478
     41 H263         4.4570    12.5250   -23.8370 hc         1 A1H       0.037478
     42 H261         4.9490    10.8400   -23.6280 hc         1 A1H       0.037478
     43 H271         1.5990    11.9690   -24.7440 hc         1 A1H       0.037478
     44 H273         0.7850    11.9520   -23.1830 hc         1 A1H       0.037478
     45 H272         1.9990    13.1850   -23.5300 hc         1 A1H       0.037478
     46 H283         2.3270     9.5550   -24.4340 hc         1 A1H       0.037478
     47 H282         3.2140     9.0700   -22.9880 hc         1 A1H       0.037478
     48 H281         1.5070     9.5000   -22.8780 hc         1 A1H       0.037478
     49 H101         1.4760    12.5310   -17.1380 hn         1 A1H       0.331500
     50 H241         8.8320    11.3870   -18.8840 ho         1 A1H       0.473000
     51 H251        11.0410    13.3310   -18.8660 ho         1 A1H       0.456000
@<TRIPOS>BOND
     1     1     2 ar  
     2     1     6 ar  
     3     1    29 1   
     4     2     3 ar  
     5     2    30 1   
     6     3     4 ar  
     7     3    31 1   
     8     4     5 ar  
     9     4     8 1   
    10     5     6 ar  
    11     5    24 1   
    12     6     7 1   
    13     7    25 1   
    14     7    26 2   
    15     8    18 1   
    16     8    32 1   
    17     9    10 ar  
    18     9    11 ar  
    19     9    16 1   
    20    10    14 ar  
    21    10    33 1   
    22    11    12 ar  
    23    11    34 1   
    24    12    13 ar  
    25    12    35 1   
    26    13    14 ar  
    27    13    17 1   
    28    14    36 1   
    29    15    18 2   
    30    16    24 2   
    31    16    25 1   
    32    17    21 1   
    33    17    22 1   
    34    17    23 1   
    35    18    19 1   
    36    19    20 1   
    37    19    27 1   
    38    19    37 1   
    39    20    28 1   
    40    20    38 1   
    41    20    39 1   
    42    21    40 1   
    43    21    41 1   
    44    21    42 1   
    45    22    43 1   
    46    22    44 1   
    47    22    45 1   
    48    23    46 1   
    49    23    47 1   
    50    23    48 1   
    51    25    49 1   
    52    27    50 1   
    53    28    51 1   
@<TRIPOS>SUBSTRUCTURE
     1 A1H         1 TEMP              0 ****  ****    0 ROOT
