@<TRIPOS>MOLECULE
A1H
   56    59     1     0     0
SMALL
abcg2


@<TRIPOS>ATOM
      1 C10          1.3230    26.9250   -22.3620 ca         1 A1H      -0.029200
      2 C13          4.0400    26.9110   -22.0090 ca         1 A1H      -0.147000
      3 C15          4.3270    25.3420   -23.9460 cp         1 A1H      -0.038000
      4 C17          6.3800    25.0500   -25.1790 ca         1 A1H      -0.110000
      5 C24          4.7420    17.6520   -24.0550 c3         1 A1H      -0.019700
      6 C26          5.9100    16.7590   -24.4560 c3         1 A1H      -0.097100
      7 C02          1.4980    30.2590   -19.4510 c          1 A1H       0.641100
      8 C03          1.2380    31.0190   -18.2030 cx         1 A1H      -0.247700
      9 C04          1.3220    32.5230   -18.2650 cx         1 A1H      -0.095900
     10 C05          2.3900    31.7600   -17.5750 cx         1 A1H      -0.095900
     11 C07          0.7690    28.3120   -20.7130 cc         1 A1H       0.427500
     12 C11          1.8930    27.7020   -21.3400 ca         1 A1H      -0.217900
     13 C12          3.2830    27.6850   -21.1640 ca         1 A1H      -0.010000
     14 C14          3.4610    26.1430   -23.0530 cp         1 A1H       0.017000
     15 C16          5.5840    25.8070   -24.3340 ca         1 A1H      -0.088000
     16 C18          5.9390    23.8240   -25.6590 ca         1 A1H      -0.070000
     17 C19          4.6890    23.3450   -25.2870 ca         1 A1H      -0.091300
     18 C23          4.4650    18.7940   -25.0390 c3         1 A1H      -0.332400
     19 C25          4.8610    18.1080   -22.6050 c3         1 A1H      -0.097100
     20 C29          3.9020    24.1040   -24.4290 ca         1 A1H      -0.093000
     21 C30          2.0910    26.1480   -23.2340 ca         1 A1H      -0.137000
     22 N06          0.7320    29.1430   -19.5960 ns         1 A1H      -0.407400
     23 N08         -0.3470    27.9420   -21.2870 nd         1 A1H      -0.558100
     24 N09         -0.0130    27.1060   -22.2730 na         1 A1H      -0.059400
     25 N21          5.1290    21.1220   -26.3200 n7         1 A1H      -0.884300
     26 O01          2.3260    30.5990   -20.2770 o          1 A1H      -0.580100
     27 O27          6.0350    20.7070   -24.0450 o          1 A1H      -0.522000
     28 O28          6.8690    19.3670   -26.0030 o          1 A1H      -0.522000
     29 S22          5.7700    20.0030   -25.2910 s6         1 A1H       1.182100
     30 H131         5.1120    26.8720   -21.8620 ha         1 A1H       0.120000
     31 H171         7.3530    25.4230   -25.4730 ha         1 A1H       0.116000
     32 H201         3.4880    22.2890   -26.6900 h1         1 A1H       0.046200
     33 H202         3.4610    21.6040   -25.0920 h1         1 A1H       0.046200
     34 H241         3.8320    17.0470   -24.1300 hc         1 A1H       0.045700
     35 H262         5.9160    15.8630   -23.8360 hc         1 A1H       0.044367
     36 H263         5.8390    16.4420   -25.4970 hc         1 A1H       0.044367
     37 H261         6.8700    17.2560   -24.3200 hc         1 A1H       0.044367
     38 H031         0.5010    30.6020   -17.5270 hc         1 A1H       0.086700
     39 H041         1.5500    32.9690   -19.2250 hc         1 A1H       0.082450
     40 H042         0.6080    33.0730   -17.6680 hc         1 A1H       0.082450
     41 H051         3.3540    31.6770   -18.0580 hc         1 A1H       0.082450
     42 H052         2.4240    31.7760   -16.4940 hc         1 A1H       0.082450
     43 H121         3.7540    28.2550   -20.3760 ha         1 A1H       0.130000
     44 H161         5.9390    26.7700   -23.9900 ha         1 A1H       0.119000
     45 H181         6.5690    23.2410   -26.3170 ha         1 A1H       0.125000
     46 H231         4.2550    18.3960   -26.0350 h1         1 A1H       0.082200
     47 H232         3.5860    19.3560   -24.7140 h1         1 A1H       0.082200
     48 H253         4.8360    17.2420   -21.9440 hc         1 A1H       0.044367
     49 H251         5.7950    18.6360   -22.4190 hc         1 A1H       0.044367
     50 H252         4.0390    18.7670   -22.3220 hc         1 A1H       0.044367
     51 H291         2.9410    23.7090   -24.1160 ha         1 A1H       0.107000
     52 H301         1.6230    25.5900   -24.0340 ha         1 A1H       0.118000
     53 H061        -0.0190    28.9890   -18.9400 hn         1 A1H       0.331500
     54 H091        -0.7350    26.6890   -22.8370 hn         1 A1H       0.378000
     55 H211         4.9740    20.7650   -27.2540 hn         1 A1H       0.485000
     56 C20          4.1250    22.0570   -25.8350 c3         1 A1H       0.268100
@<TRIPOS>BOND
     1     1    12 ar  
     2     1    21 ar  
     3     1    24 1   
     4     2    13 ar  
     5     2    14 ar  
     6     2    30 1   
     7     3    14 1   
     8     3    15 ar  
     9     3    20 ar  
    10     4    15 ar  
    11     4    16 ar  
    12     4    31 1   
    13     5     6 1   
    14     5    18 1   
    15     5    19 1   
    16     5    34 1   
    17     6    35 1   
    18     6    36 1   
    19     6    37 1   
    20     7     8 1   
    21     7    22 1   
    22     7    26 2   
    23     8     9 1   
    24     8    10 1   
    25     8    38 1   
    26     9    10 1   
    27     9    39 1   
    28     9    40 1   
    29    10    41 1   
    30    10    42 1   
    31    11    12 1   
    32    11    22 1   
    33    11    23 2   
    34    12    13 ar  
    35    13    43 1   
    36    14    21 ar  
    37    15    44 1   
    38    16    17 ar  
    39    16    45 1   
    40    17    20 ar  
    41    17    56 1   
    42    18    29 1   
    43    18    46 1   
    44    18    47 1   
    45    19    48 1   
    46    19    49 1   
    47    19    50 1   
    48    20    51 1   
    49    21    52 1   
    50    22    53 1   
    51    23    24 1   
    52    24    54 1   
    53    25    29 1   
    54    25    55 1   
    55    25    56 1   
    56    27    29 2   
    57    28    29 2   
    58    32    56 1   
    59    33    56 1   
@<TRIPOS>SUBSTRUCTURE
     1 A1H         1 TEMP              0 ****  ****    0 ROOT
