@<TRIPOS>MOLECULE
A1H
   37    38     1     0     0
SMALL
abcg2


@<TRIPOS>ATOM
      1 C10        158.5840   161.8830   162.2680 ca         1 A1H      -0.367300
      2 N12        158.7360   161.2320   164.5610 nb         1 A1H      -0.198000
      3 C13        158.3200   162.4530   164.8790 ca         1 A1H       0.219300
      4 C15        157.0230   161.8800   166.9580 c3         1 A1H      -0.071400
      5 C03        159.8950   159.5660   160.2840 ca         1 A1H      -0.009300
      6 C04        159.9930   158.2200   160.0460 ca         1 A1H      -0.121000
      7 C05        158.8320   157.4610   160.0480 ca         1 A1H       0.016000
      8 C06        157.6190   158.0790   160.2860 ca         1 A1H      -0.132000
      9 C07        157.5510   159.4420   160.5240 ca         1 A1H      -0.000300
     10 C08        156.2550   160.1310   160.7690 c3         1 A1H      -0.085800
     11 C09        158.6900   161.5910   160.7980 c3         1 A1H       0.111900
     12 C11        158.8540   160.9710   163.2620 ca         1 A1H       0.158900
     13 C14        158.1200   162.7470   166.3360 c3         1 A1H      -0.127700
     14 C16        155.6630   162.0670   166.2980 c3         1 A1H      -0.092100
     15 C18        158.1900   163.1660   162.7130 ca         1 A1H       0.419900
     16 N02        158.7050   160.1490   160.5150 na         1 A1H       0.055300
     17 N17        158.0530   163.4200   164.0150 nb         1 A1H      -0.246000
     18 N19        157.9080   164.1670   161.8650 nv         1 A1H      -1.067900
     19 H152       157.3200   160.8310   166.9040 hc         1 A1H       0.056700
     20 H151       156.9530   162.1270   168.0190 hc         1 A1H       0.056700
     21 H031       160.7600   160.2130   160.3010 h4         1 A1H       0.184000
     22 H041       160.9640   157.7840   159.8640 ha         1 A1H       0.178000
     23 H051       158.8720   156.3960   159.8650 ha         1 A1H       0.169000
     24 H061       156.7010   157.5100   160.2890 ha         1 A1H       0.173000
     25 H083       156.2530   160.6750   161.7140 hc         1 A1H       0.092700
     26 H082       156.0320   160.8440   159.9730 hc         1 A1H       0.092700
     27 H081       155.4540   159.3980   160.7970 hc         1 A1H       0.092700
     28 H092       159.5980   162.0150   160.3690 h1         1 A1H       0.085700
     29 H091       157.8560   162.0290   160.2490 h1         1 A1H       0.085700
     30 H111       159.1780   159.9630   163.0170 h4         1 A1H       0.005100
     31 H142       159.0610   162.5670   166.8640 hc         1 A1H       0.077200
     32 H141       157.8760   163.8030   166.4560 hc         1 A1H       0.077200
     33 H163       154.9000   161.4730   166.8010 hc         1 A1H       0.034367
     34 H162       155.3450   163.1110   166.3310 hc         1 A1H       0.034367
     35 H161       155.6760   161.7590   165.2510 hc         1 A1H       0.034367
     36 H192       157.7230   165.0780   162.2510 hn         1 A1H       0.503000
     37 H191       158.1790   164.1430   160.8980 hn         1 A1H       0.503000
@<TRIPOS>BOND
     1     1    11 1   
     2     1    12 ar  
     3     1    15 ar  
     4     2     3 ar  
     5     2    12 ar  
     6     3    13 1   
     7     3    17 ar  
     8     4    13 1   
     9     4    14 1   
    10     4    19 1   
    11     4    20 1   
    12     5     6 ar  
    13     5    16 2   
    14     5    21 1   
    15     6     7 ar  
    16     6    22 1   
    17     7     8 ar  
    18     7    23 1   
    19     8     9 ar  
    20     8    24 1   
    21     9    10 1   
    22     9    16 1   
    23    10    25 1   
    24    10    26 1   
    25    10    27 1   
    26    11    16 1   
    27    11    28 1   
    28    11    29 1   
    29    12    30 1   
    30    13    31 1   
    31    13    32 1   
    32    14    33 1   
    33    14    34 1   
    34    14    35 1   
    35    15    17 ar  
    36    15    18 1   
    37    18    36 1   
    38    18    37 1   
@<TRIPOS>SUBSTRUCTURE
     1 A1H         1 TEMP              0 ****  ****    0 ROOT
