@<TRIPOS>MOLECULE
A1H
   51    53     1     0     0
SMALL
abcg2


@<TRIPOS>ATOM
      1 C2          -1.0850   -22.7650     2.7580 c3         1 A1H       0.169600
      2 C3          -2.5450   -22.6750     2.3730 c6         1 A1H       0.130300
      3 C4          -3.0930   -21.2450     2.4920 c6         1 A1H       0.148300
      4 C6          -4.5960   -21.2470     2.2480 c6         1 A1H       0.168300
      5 C8          -5.3090   -22.3180     3.0940 c6         1 A1H       0.024300
      6 O1          -0.6300   -24.0690     2.4830 oh         1 A1H      -0.711000
      7 C12         -5.1560   -21.3940     6.5530 cc         1 A1H       0.255500
      8 C13         -4.6840   -21.1690     7.9170 ca         1 A1H      -0.104500
      9 C14         -3.4090   -21.5800     8.3100 ca         1 A1H      -0.094000
     10 C15         -2.9670   -21.3680     9.6070 ca         1 A1H      -0.113500
     11 C16         -3.7900   -20.7420    10.5340 ca         1 A1H      -0.107000
     12 C17         -5.0590   -20.3290    10.1520 ca         1 A1H      -0.113500
     13 C18         -5.5040   -20.5400     8.8550 ca         1 A1H      -0.094000
     14 C19         -4.5030   -21.9480     5.4780 cd         1 A1H      -0.190000
     15 C20         -4.6200   -23.6770     2.9660 c6         1 A1H       0.376300
     16 C23         -4.5270   -25.7950    -0.0150 c3         1 A1H       0.180300
     17 C25         -3.4270   -24.9990    -0.7040 c3         1 A1H       0.152800
     18 N10         -6.5460   -21.3840     4.9100 nd         1 A1H      -0.202800
     19 N11         -6.4040   -21.0660     6.1450 nc         1 A1H      -0.350000
     20 N26         -3.2080   -25.4710    -2.0610 n8         1 A1H      -0.984200
     21 N9          -5.4120   -21.9220     4.4870 na         1 A1H       0.127800
     22 O21         -4.8820   -24.1360     1.6860 os         1 A1H      -0.467000
     23 O24         -5.7500   -25.5220    -0.6600 oh         1 A1H      -0.687000
     24 O27         -3.2530   -23.5640     3.2280 os         1 A1H      -0.469000
     25 O5          -2.5080   -20.4140     1.5180 oh         1 A1H      -0.703000
     26 O7          -5.0910   -19.9670     2.5200 oh         1 A1H      -0.636000
     27 H2B         -0.9750   -22.5050     3.8200 h1         1 A1H       0.027200
     28 H2A         -0.5280   -22.0170     2.1830 h1         1 A1H       0.027200
     29 H3          -2.6480   -22.9890     1.3260 h1         1 A1H       0.076700
     30 H4          -2.8910   -20.8620     3.5020 h1         1 A1H       0.055700
     31 H6          -4.7570   -21.5280     1.1980 h1         1 A1H       0.075700
     32 H8          -6.3420   -22.4160     2.7540 h1         1 A1H       0.110700
     33 H1           0.3090   -24.1070     2.6820 ho         1 A1H       0.507000
     34 H14         -2.7530   -22.0730     7.6030 ha         1 A1H       0.119500
     35 H15         -1.9760   -21.6950     9.8930 ha         1 A1H       0.112000
     36 H16         -3.4440   -20.5770    11.5460 ha         1 A1H       0.112000
     37 H17         -5.7090   -19.8400    10.8660 ha         1 A1H       0.112000
     38 H18         -6.4950   -20.2120     8.5690 ha         1 A1H       0.119500
     39 H19         -3.5110   -22.3490     5.3670 h4         1 A1H       0.177000
     40 H20         -5.0060   -24.3680     3.7270 h2         1 A1H       0.085700
     41 H22B        -5.3460   -26.1310     1.9560 h1         1 A1H       0.042700
     42 H22A        -3.6160   -25.7760     1.9180 h1         1 A1H       0.042700
     43 H23         -4.2680   -26.8630    -0.0940 h1         1 A1H       0.031700
     44 H25A        -2.5280   -25.0470    -0.0710 h1         1 A1H       0.044700
     45 H25B        -3.7170   -23.9460    -0.7460 h1         1 A1H       0.044700
     46 H26A        -2.5420   -24.8650    -2.5230 hn         1 A1H       0.391000
     47 H26B        -2.7720   -26.3850    -2.0330 hn         1 A1H       0.391000
     48 H24         -6.4200   -26.1140    -0.3050 ho         1 A1H       0.496000
     49 H5          -1.7340   -19.9840     1.8910 ho         1 A1H       0.510000
     50 H7          -5.9840   -19.8940     2.1670 ho         1 A1H       0.460000
     51 C22         -4.5810   -25.5060     1.4750 c3         1 A1H       0.119600
@<TRIPOS>BOND
     1     1     2 1   
     2     1     6 1   
     3     1    27 1   
     4     1    28 1   
     5     2     3 1   
     6     2    24 1   
     7     2    29 1   
     8     3     4 1   
     9     3    25 1   
    10     3    30 1   
    11     4     5 1   
    12     4    26 1   
    13     4    31 1   
    14     5    15 1   
    15     5    21 1   
    16     5    32 1   
    17     6    33 1   
    18     7     8 1   
    19     7    14 2   
    20     7    19 1   
    21     8     9 ar  
    22     8    13 ar  
    23     9    10 ar  
    24     9    34 1   
    25    10    11 ar  
    26    10    35 1   
    27    11    12 ar  
    28    11    36 1   
    29    12    13 ar  
    30    12    37 1   
    31    13    38 1   
    32    14    21 1   
    33    14    39 1   
    34    15    22 1   
    35    15    24 1   
    36    15    40 1   
    37    16    17 1   
    38    16    23 1   
    39    16    43 1   
    40    16    51 1   
    41    17    20 1   
    42    17    44 1   
    43    17    45 1   
    44    18    19 2   
    45    18    21 1   
    46    20    46 1   
    47    20    47 1   
    48    22    51 1   
    49    23    48 1   
    50    25    49 1   
    51    26    50 1   
    52    41    51 1   
    53    42    51 1   
@<TRIPOS>SUBSTRUCTURE
     1 A1H         1 TEMP              0 ****  ****    0 ROOT
