@<TRIPOS>MOLECULE
A1H
   38    38     1     0     0
SMALL
abcg2


@<TRIPOS>ATOM
      1 N          107.4200    67.5450    52.8470 n8         1 A1H      -1.008200
      2 CA         107.3690    67.8520    54.2710 c3         1 A1H       0.022500
      3 C          108.5630    68.7520    54.6880 c          1 A1H       0.718000
      4 O          109.1970    69.3110    53.7700 o          1 A1H      -0.731000
      5 CB         107.3010    66.5670    55.0940 c3         1 A1H      -0.050400
      6 CG         106.0750    65.7200    54.7750 c3         1 A1H      -0.078400
      7 CD         105.9960    64.4090    55.5510 c3         1 A1H      -0.066400
      8 CE         105.7980    64.5970    57.0530 c3         1 A1H       0.093800
      9 NZ         105.7990    63.3160    57.7210 n2         1 A1H      -0.533900
     10 CAC        100.9070    64.7190    58.4070 ca         1 A1H      -0.109000
     11 CAD        101.6660    64.6060    59.5650 ca         1 A1H      -0.115500
     12 CAE        101.4030    64.2260    57.2070 ca         1 A1H      -0.115500
     13 CAF        102.9140    63.9990    59.5230 ca         1 A1H      -0.089500
     14 CAG        102.6530    63.6260    57.1640 ca         1 A1H      -0.089500
     15 CAH        104.7960    61.5200    58.9690 c3         1 A1H       0.127300
     16 CAI        104.7630    62.8580    58.2790 ce         1 A1H       0.431900
     17 CAJ        103.4200    63.5090    58.3220 ca         1 A1H      -0.173900
     18 OAB        106.0750    60.9610    58.9330 oh         1 A1H      -0.622000
     19 H          106.4850    67.4690    52.4700 hn         1 A1H       0.382000
     20 H2         107.8630    68.3270    52.3820 hn         1 A1H       0.382000
     21 HA         106.4680    68.4390    54.5240 h1         1 A1H      -0.006300
     22 HB3        108.2040    65.9730    54.9110 hc         1 A1H       0.046700
     23 HB2        107.3080    66.8290    56.1530 hc         1 A1H       0.046700
     24 HG2        105.1680    66.3080    54.9590 hc         1 A1H       0.029200
     25 HG3        106.0700    65.4820    53.7080 hc         1 A1H       0.029200
     26 HD3        105.1650    63.8120    55.1630 hc         1 A1H       0.032700
     27 HD2        106.9030    63.8210    55.3780 hc         1 A1H       0.032700
     28 HE3        106.6390    65.1660    57.4600 h1         1 A1H       0.058700
     29 HE2        104.8950    65.1940    57.2270 h1         1 A1H       0.058700
     30 HAC         99.9330    65.1890    58.4400 ha         1 A1H       0.107000
     31 HAD        101.2860    64.9900    60.5020 ha         1 A1H       0.109500
     32 HAE        100.8160    64.3090    56.3010 ha         1 A1H       0.109500
     33 HAF        103.5000    63.9170    60.4300 ha         1 A1H       0.118000
     34 HAG        103.0340    63.2430    56.2250 ha         1 A1H       0.118000
     35 HAH3       104.4300    61.6650    59.9970 h1         1 A1H       0.017200
     36 HAH2       104.0430    60.8840    58.4780 h1         1 A1H       0.017200
     37 HAB        106.0310    60.1040    59.3680 ho         1 A1H       0.430000
     38 OXT        108.7630    68.8770    55.9120 o          1 A1H      -0.731000
@<TRIPOS>BOND
     1     1     2 1   
     2     1    19 1   
     3     1    20 1   
     4     2     3 1   
     5     2     5 1   
     6     2    21 1   
     7     3     4 1   
     8     3    38 1   
     9     5     6 1   
    10     5    22 1   
    11     5    23 1   
    12     6     7 1   
    13     6    24 1   
    14     6    25 1   
    15     7     8 1   
    16     7    26 1   
    17     7    27 1   
    18     8     9 1   
    19     8    28 1   
    20     8    29 1   
    21     9    16 2   
    22    10    11 ar  
    23    10    12 ar  
    24    10    30 1   
    25    11    13 ar  
    26    11    31 1   
    27    12    14 ar  
    28    12    32 1   
    29    13    17 ar  
    30    13    33 1   
    31    14    17 ar  
    32    14    34 1   
    33    15    16 1   
    34    15    18 1   
    35    15    35 1   
    36    15    36 1   
    37    16    17 1   
    38    18    37 1   
@<TRIPOS>SUBSTRUCTURE
     1 A1H         1 TEMP              0 ****  ****    0 ROOT
