@<TRIPOS>MOLECULE
A1H
   18    19     1     0     0
SMALL
abcg2


@<TRIPOS>ATOM
      1 C4         -51.6260   -43.9800    23.1080 c3         1 A1H      -0.040800
      2 C5         -51.1470   -44.8940    20.7890 cc         1 A1H      -0.120000
      3 N2         -48.4580   -44.8010    21.2840 na         1 A1H       0.058200
      4 C3         -50.6590   -44.4240    22.0550 cc         1 A1H      -0.094300
      5 N          -46.6610   -45.3070    20.1190 nc         1 A1H      -0.546300
      6 C1         -47.1030   -44.8540    21.2680 cd         1 A1H       0.329700
      7 C          -49.3240   -44.3910    22.2710 cd         1 A1H      -0.117000
      8 CB         -50.2950   -45.2990    19.8150 cd         1 A1H      -0.059000
      9 CG         -48.8990   -45.2580    20.0500 cd         1 A1H      -0.162000
     10 CD         -47.7470   -45.5630    19.3530 cc         1 A1H      -0.076400
     11 H1         -52.3150   -44.7850    23.3690 hc         1 A1H       0.046700
     12 H2         -51.1160   -43.6640    24.0170 hc         1 A1H       0.046700
     13 H3         -52.2310   -43.1440    22.7530 hc         1 A1H       0.046700
     14 H5         -46.5060   -44.5520    22.1150 h5         1 A1H       0.067800
     15 H6         -48.8710   -44.0520    23.1930 h4         1 A1H       0.142000
     16 H7         -50.6550   -45.6540    18.8590 ha         1 A1H       0.130000
     17 H8         -47.6700   -45.9500    18.3490 h4         1 A1H       0.229000
     18 H4         -52.2160   -44.9210    20.6210 ha         1 A1H       0.121000
@<TRIPOS>BOND
     1     1     4 1   
     2     1    11 1   
     3     1    12 1   
     4     1    13 1   
     5     2     4 1   
     6     2     8 2   
     7     2    18 1   
     8     3     6 1   
     9     3     7 1   
    10     3     9 1   
    11     4     7 2   
    12     5     6 2   
    13     5    10 1   
    14     6    14 1   
    15     7    15 1   
    16     8     9 1   
    17     8    16 1   
    18     9    10 2   
    19    10    17 1   
@<TRIPOS>SUBSTRUCTURE
     1 A1H         1 TEMP              0 ****  ****    0 ROOT
