@<TRIPOS>MOLECULE
A1H
   46    50     1     0     0
SMALL
abcg2


@<TRIPOS>ATOM
      1 C2          20.4580     4.5270    19.5060 c          1 A1H       0.575000
      2 C3          19.4950     3.4160    19.1390 c3         1 A1H      -0.114100
      3 C4          19.1900     3.3890    17.6590 ca         1 A1H      -0.074300
      4 C5          19.4740     2.2110    16.9710 ca         1 A1H      -0.080000
      5 C6          19.2390     2.0660    15.6080 cp         1 A1H      -0.037000
      6 C7          18.7040     3.1550    14.9200 ca         1 A1H      -0.087000
      7 C8          18.4270     4.3300    15.5910 ca         1 A1H      -0.119000
      8 C11         18.5620     6.0200    19.0440 c3         1 A1H       0.116000
      9 C15         21.9730     8.2230    21.3540 ca         1 A1H      -0.104000
     10 C16         22.3280     9.1210    20.3560 ca         1 A1H      -0.110000
     11 C17         21.9020     8.9050    19.0530 ca         1 A1H      -0.104000
     12 C18         21.1330     7.7900    18.7460 ca         1 A1H      -0.105000
     13 C19         19.5320     0.8020    14.9120 cp         1 A1H       0.050000
     14 C21         18.9530    -0.8980    13.2840 ca         1 A1H       0.354900
     15 N22         20.0190    -1.6470    13.5240 nb         1 A1H      -0.680000
     16 C23         20.8340    -1.1660    14.4490 ca         1 A1H       0.365500
     17 C27         20.6730     0.0340    15.1840 ca         1 A1H      -0.124800
     18 O1          21.6150     4.3020    19.8120 o          1 A1H      -0.539000
     19 C9          18.6550     4.4770    16.9600 ca         1 A1H      -0.059300
     20 C10         18.2990     5.8160    17.5620 c3         1 A1H      -0.053100
     21 N12         19.9450     5.7820    19.4420 n          1 A1H      -0.247400
     22 C13         20.7710     6.8970    19.7470 ca         1 A1H      -0.044000
     23 C14         21.1920     7.1160    21.0540 ca         1 A1H      -0.105000
     24 C20         18.6750     0.3040    13.9360 ca         1 A1H      -0.190000
     25 N24         21.9980    -1.7440    14.8510 na         1 A1H      -0.327400
     26 C25         22.5860    -0.9550    15.7990 cc         1 A1H      -0.152100
     27 C26         21.8150     0.1460    16.0350 cd         1 A1H      -0.234200
     28 H1          18.5770     3.4860    19.7270 hc         1 A1H       0.072700
     29 H2          19.9690     2.4770    19.4220 hc         1 A1H       0.072700
     30 H3          19.8670     1.3730    17.5320 ha         1 A1H       0.123000
     31 H4          18.5220     3.0920    13.8540 ha         1 A1H       0.119000
     32 H5          18.0230     5.1690    15.0370 ha         1 A1H       0.111000
     33 H6          18.3210     7.0510    19.2990 h1         1 A1H       0.053200
     34 H7          17.8940     5.4020    19.6450 h1         1 A1H       0.053200
     35 H9          22.9330     9.9870    20.5930 ha         1 A1H       0.114000
     36 H10         22.1760     9.5990    18.2680 ha         1 A1H       0.114500
     37 H11         20.8160     7.6160    17.7250 ha         1 A1H       0.119500
     38 H12         18.2640    -1.2670    12.5330 h4         1 A1H       0.018100
     39 H13         18.8220     6.5930    16.9970 hc         1 A1H       0.056700
     40 H14         17.2340     6.0000    17.3940 hc         1 A1H       0.056700
     41 H15         20.9010     6.4270    21.8360 ha         1 A1H       0.119500
     42 H16         17.7650     0.8330    13.6820 ha         1 A1H       0.121000
     43 H17         22.3720    -2.6070    14.4920 hn         1 A1H       0.361000
     44 H18         23.5270    -1.2410    16.2410 h4         1 A1H       0.216000
     45 H19         22.0470     0.9350    16.7320 ha         1 A1H       0.215000
     46 H8          22.2980     8.3870    22.3730 ha         1 A1H       0.114500
@<TRIPOS>BOND
     1     1     2 1   
     2     1    18 2   
     3     1    21 1   
     4     2     3 1   
     5     2    28 1   
     6     2    29 1   
     7     3     4 ar  
     8     3    19 ar  
     9     4     5 ar  
    10     4    30 1   
    11     5     6 ar  
    12     5    13 1   
    13     6     7 ar  
    14     6    31 1   
    15     7    19 ar  
    16     7    32 1   
    17     8    20 1   
    18     8    21 1   
    19     8    33 1   
    20     8    34 1   
    21     9    10 ar  
    22     9    23 ar  
    23     9    46 1   
    24    10    11 ar  
    25    10    35 1   
    26    11    12 ar  
    27    11    36 1   
    28    12    22 ar  
    29    12    37 1   
    30    13    17 ar  
    31    13    24 ar  
    32    14    15 ar  
    33    14    24 ar  
    34    14    38 1   
    35    15    16 ar  
    36    16    17 ar  
    37    16    25 1   
    38    17    27 1   
    39    19    20 1   
    40    20    39 1   
    41    20    40 1   
    42    21    22 1   
    43    22    23 ar  
    44    23    41 1   
    45    24    42 1   
    46    25    26 1   
    47    25    43 1   
    48    26    27 2   
    49    26    44 1   
    50    27    45 1   
@<TRIPOS>SUBSTRUCTURE
     1 A1H         1 TEMP              0 ****  ****    0 ROOT
