@<TRIPOS>MOLECULE
A1H
   49    52     1     0     0
SMALL
abcg2


@<TRIPOS>ATOM
      1 N1          11.5460   -30.8000   -32.3950 nh         1 A1H      -0.637400
      2 C4          10.4000   -28.5980   -37.4530 c6         1 A1H      -0.075400
      3 C5          11.5500   -27.7850   -36.8690 c6         1 A1H      -0.072400
      4 C6          11.3410   -27.5040   -35.3840 c6         1 A1H      -0.069900
      5 C7          10.6260   -29.7390   -32.3040 c2         1 A1H       0.009800
      6 C8           9.5590   -29.9480   -31.5200 c2         1 A1H      -0.000600
      7 C10          7.0670   -29.5410   -31.8800 c5         1 A1H      -0.074900
      8 C13          8.0090   -28.9050   -29.7790 c5         1 A1H      -0.074900
      9 C15         12.2210   -32.6080   -31.0260 c5         1 A1H       0.135800
     10 O           12.0270   -27.8040   -32.6030 oh         1 A1H      -0.657000
     11 C           10.8950   -28.4950   -33.1030 c3         1 A1H       0.238500
     12 C1          11.1350   -28.7920   -34.5840 c6         1 A1H      -0.049700
     13 C3          10.1870   -29.8810   -36.6590 c6         1 A1H      -0.072400
     14 C2           9.9760   -29.5960   -35.1760 c6         1 A1H      -0.069900
     15 C16         12.9120   -30.6010   -31.8640 c5         1 A1H       0.394000
     16 N           13.3900   -31.9220   -31.5530 n7         1 A1H      -0.829400
     17 C14         11.0300   -32.0280   -31.8080 c5         1 A1H       0.282500
     18 S            9.5840   -31.5590   -30.7680 ss         1 A1H      -0.375600
     19 C9           8.3850   -29.0660   -31.2570 c5         1 A1H      -0.007500
     20 C12          6.5850   -28.3240   -29.8070 c5         1 A1H      -0.079400
     21 C11          6.0160   -28.6550   -31.2070 c5         1 A1H      -0.079400
     22 H3          10.5910   -28.8280   -38.5040 hc         1 A1H       0.037200
     23 H4          12.4870   -28.3350   -37.0050 hc         1 A1H       0.038450
     24 H5          11.6640   -26.8430   -37.4120 hc         1 A1H       0.038450
     25 H6          12.1910   -26.9440   -34.9910 hc         1 A1H       0.042950
     26 H7          10.4580   -26.8660   -35.2580 hc         1 A1H       0.042950
     27 H10          7.0670   -29.4580   -32.9680 hc         1 A1H       0.050950
     28 H11          6.9060   -30.5930   -31.6310 hc         1 A1H       0.050950
     29 H12          8.0050   -29.8800   -29.2840 hc         1 A1H       0.050950
     30 H13          8.7170   -28.2760   -29.2380 hc         1 A1H       0.050950
     31 H14         12.3130   -33.6870   -31.1370 h1         1 A1H       0.072200
     32 H15         12.1150   -32.3850   -29.9620 h1         1 A1H       0.072200
     33 H16         11.8470   -27.5570   -31.6900 ho         1 A1H       0.444000
     34 H17         10.0050   -27.8550   -33.0410 h1         1 A1H       0.041700
     35 H18         12.0430   -29.4040   -34.6660 hc         1 A1H       0.066700
     36 H19          9.3330   -30.4360   -37.0560 hc         1 A1H       0.038450
     37 H20         11.0620   -30.5290   -36.7780 hc         1 A1H       0.038450
     38 H21          9.0430   -29.0350   -35.0410 hc         1 A1H       0.042950
     39 H22          9.8520   -30.5370   -34.6360 hc         1 A1H       0.042950
     40 H23         12.8970   -29.9860   -30.9540 h2         1 A1H       0.068200
     41 H24         13.5550   -30.1170   -32.5960 h2         1 A1H       0.068200
     42 H25         13.6860   -32.3770   -32.4090 hn         1 A1H       0.416000
     43 H27         10.6700   -32.7120   -32.5800 h2         1 A1H       0.093700
     44 H28          8.6010   -28.0700   -31.6560 hc         1 A1H       0.052700
     45 H29          6.6040   -27.2450   -29.6460 hc         1 A1H       0.041950
     46 H30          5.9730   -28.7470   -29.0090 hc         1 A1H       0.041950
     47 H31          5.8810   -27.7380   -31.7840 hc         1 A1H       0.041950
     48 H32          5.0410   -29.1400   -31.1570 hc         1 A1H       0.041950
     49 H2           9.4830   -27.9990   -37.4260 hc         1 A1H       0.037200
@<TRIPOS>BOND
     1     1     5 1   
     2     1    15 1   
     3     1    17 1   
     4     2     3 1   
     5     2    13 1   
     6     2    22 1   
     7     2    49 1   
     8     3     4 1   
     9     3    23 1   
    10     3    24 1   
    11     4    12 1   
    12     4    25 1   
    13     4    26 1   
    14     5     6 2   
    15     5    11 1   
    16     6    18 1   
    17     6    19 1   
    18     7    19 1   
    19     7    21 1   
    20     7    27 1   
    21     7    28 1   
    22     8    19 1   
    23     8    20 1   
    24     8    29 1   
    25     8    30 1   
    26     9    16 1   
    27     9    17 1   
    28     9    31 1   
    29     9    32 1   
    30    10    11 1   
    31    10    33 1   
    32    11    12 1   
    33    11    34 1   
    34    12    14 1   
    35    12    35 1   
    36    13    14 1   
    37    13    36 1   
    38    13    37 1   
    39    14    38 1   
    40    14    39 1   
    41    15    16 1   
    42    15    40 1   
    43    15    41 1   
    44    16    42 1   
    45    17    18 1   
    46    17    43 1   
    47    19    44 1   
    48    20    21 1   
    49    20    45 1   
    50    20    46 1   
    51    21    47 1   
    52    21    48 1   
@<TRIPOS>SUBSTRUCTURE
     1 A1H         1 TEMP              0 ****  ****    0 ROOT
