@<TRIPOS>MOLECULE
A1H
   43    48     1     0     0
SMALL
abcg2


@<TRIPOS>ATOM
      1 N1          27.9680     6.5510   -23.2390 nc         1 A1H      -0.187800
      2 N3          24.9380     8.4370   -28.3800 na         1 A1H      -0.217700
      3 C4          24.9940     6.6510   -25.1520 ca         1 A1H      -0.093000
      4 C5          24.4020     7.2370   -26.2500 ca         1 A1H      -0.112000
      5 C6          27.2270     7.1630   -25.9830 ca         1 A1H      -0.026000
      6 C7          26.6450     7.7750   -27.0950 ca         1 A1H      -0.096800
      7 C8          25.2350     7.7990   -27.2140 ca         1 A1H      -0.046200
      8 C10         27.1690     8.4280   -28.2510 cc         1 A1H      -0.231200
      9 C13         29.7610     3.8730   -18.9390 cx         1 A1H      -0.072400
     10 C15         30.7990     4.6480   -18.1720 cx         1 A1H      -0.117400
     11 C17         24.8300     5.4810   -17.9680 cc         1 A1H       0.264900
     12 O           26.6300     2.6380   -21.5870 oh         1 A1H      -0.658000
     13 C           27.5980     3.5990   -21.2610 c3         1 A1H       0.237300
     14 C11         27.4180     4.1270   -19.8690 cc         1 A1H      -0.137300
     15 N5          26.1690     4.5990   -19.4640 na         1 A1H      -0.009500
     16 C18         24.9180     4.7180   -19.9820 cd         1 A1H       0.411400
     17 N4          24.1070     5.2470   -19.1010 nc         1 A1H      -0.666000
     18 C16         26.1200     5.0790   -18.1820 cd         1 A1H      -0.264000
     19 S           27.6700     4.9600   -17.4260 ss         1 A1H       0.169000
     20 C12         28.3410     4.2470   -18.8940 cd         1 A1H      -0.112300
     21 C14         30.4410     3.2660   -17.7400 cx         1 A1H      -0.117400
     22 C1          27.4740     4.6990   -22.2690 cd         1 A1H       0.176300
     23 C2          26.6070     4.8220   -23.3210 cc         1 A1H      -0.166000
     24 N2          26.9590     5.9930   -23.8900 na         1 A1H       0.229000
     25 N           28.2860     5.7760   -22.2630 nd         1 A1H      -0.349000
     26 C3          26.3920     6.6150   -25.0310 ca         1 A1H      -0.046200
     27 C9          26.0950     8.8120   -29.0000 cd         1 A1H      -0.157100
     28 H6          24.0110     8.6060   -28.7330 hn         1 A1H       0.353000
     29 H3          24.3760     6.2260   -24.3720 ha         1 A1H       0.126000
     30 H4          23.3240     7.2670   -26.3460 ha         1 A1H       0.123000
     31 H5          28.3030     7.1110   -25.8740 ha         1 A1H       0.141000
     32 H8          28.2070     8.5910   -28.4940 ha         1 A1H       0.212000
     33 H9          30.0840     3.4940   -19.9000 hc         1 A1H       0.089700
     34 H13         30.4700     5.4810   -17.5620 hc         1 A1H       0.079450
     35 H12         31.7500     4.8090   -18.6620 hc         1 A1H       0.079450
     36 H14         24.3980     5.9130   -17.0790 h4         1 A1H       0.045100
     37 H1          26.7630     1.8600   -21.0340 ho         1 A1H       0.460000
     38 H           28.6110     3.1840   -21.3310 h1         1 A1H       0.066700
     39 H15         24.6590     4.4070   -20.9790 h5         1 A1H       0.068100
     40 H11         29.8620     3.1440   -16.8330 hc         1 A1H       0.079450
     41 H10         31.1440     2.4660   -17.9290 hc         1 A1H       0.079450
     42 H2          25.8200     4.1980   -23.7050 h4         1 A1H       0.179000
     43 H7          26.0640     9.3340   -29.9430 h4         1 A1H       0.216000
@<TRIPOS>BOND
     1     1    24 1   
     2     1    25 2   
     3     2     7 1   
     4     2    27 1   
     5     2    28 1   
     6     3     4 ar  
     7     3    26 ar  
     8     3    29 1   
     9     4     7 ar  
    10     4    30 1   
    11     5     6 ar  
    12     5    26 ar  
    13     5    31 1   
    14     6     7 ar  
    15     6     8 1   
    16     8    27 2   
    17     8    32 1   
    18     9    10 1   
    19     9    20 1   
    20     9    21 1   
    21     9    33 1   
    22    10    21 1   
    23    10    34 1   
    24    10    35 1   
    25    11    17 1   
    26    11    18 2   
    27    11    36 1   
    28    12    13 1   
    29    12    37 1   
    30    13    14 1   
    31    13    22 1   
    32    13    38 1   
    33    14    15 1   
    34    14    20 2   
    35    15    16 1   
    36    15    18 1   
    37    16    17 2   
    38    16    39 1   
    39    18    19 1   
    40    19    20 1   
    41    21    40 1   
    42    21    41 1   
    43    22    23 2   
    44    22    25 1   
    45    23    24 1   
    46    23    42 1   
    47    24    26 1   
    48    27    43 1   
@<TRIPOS>SUBSTRUCTURE
     1 A1H         1 TEMP              0 ****  ****    0 ROOT
