@<TRIPOS>MOLECULE
A1H
   59    59     1     0     0
SMALL
abcg2


@<TRIPOS>ATOM
      1 C4          -6.5230     0.2620     0.2060 c6         1 A1H       0.141300
      2 C3          -6.0870    -1.1440    -0.1980 c6         1 A1H       0.107300
      3 C2          -4.6970    -1.4330     0.3380 c6         1 A1H       0.137300
      4 C1          -3.7300    -0.3400    -0.0920 c6         1 A1H       0.381300
      5 CAB         -0.1350    -0.5300     0.2920 c3         1 A1H      -0.085400
      6 C5          -5.4520     1.2680    -0.2190 c6         1 A1H       0.181300
      7 C6          -5.7820     2.6740     0.2340 c3         1 A1H       0.172600
      8 F1          -4.2580    -2.6550    -0.1630 f          1 A1H      -0.257000
      9 O4          -7.7360     0.6100    -0.4090 oh         1 A1H      -0.717000
     10 O3          -7.0450    -2.0460     0.2990 oh         1 A1H      -0.659000
     11 O1          -2.5100    -0.5800     0.4860 os         1 A1H      -0.441000
     12 O5          -4.2200     0.8950     0.3640 os         1 A1H      -0.473000
     13 O6          -4.8000     3.5520    -0.2620 oh         1 A1H      -0.713000
     14 H4          -6.6090     0.2990     1.3040 h1         1 A1H       0.059700
     15 H3          -6.0470    -1.1780    -1.2980 h1         1 A1H       0.053700
     16 H2          -4.7130    -1.5040     1.4310 h1         1 A1H       0.092700
     17 H1          -3.6530    -0.3210    -1.1970 h2         1 A1H       0.032700
     18 H5          -5.3710     1.2530    -1.3190 h1         1 A1H       0.058700
     19 H61         -6.7790     2.9290    -0.1390 h1         1 A1H       0.038200
     20 H62         -5.8320     2.6910     1.3310 h1         1 A1H       0.038200
     21 H6          -8.3950    -0.0480    -0.1610 ho         1 A1H       0.525000
     22 HO3         -7.0110    -2.8590    -0.2150 ho         1 A1H       0.462000
     23 HO6         -5.0440     4.4460    -0.0040 ho         1 A1H       0.505000
     24 CAC          1.0940     0.2910    -0.0770 c3         1 A1H      -0.072400
     25 CAD          2.3920    -0.4650     0.1730 c3         1 A1H      -0.074400
     26 CAE          3.6410     0.3520    -0.1280 c3         1 A1H      -0.074400
     27 CAF          4.9300    -0.4220     0.1170 c3         1 A1H      -0.074400
     28 CAG          6.1880     0.3920    -0.1570 c3         1 A1H      -0.074400
     29 CAH          7.4720    -0.3890     0.0920 c3         1 A1H      -0.074400
     30 CAI          8.7330     0.4200    -0.1770 c3         1 A1H      -0.074400
     31 CAJ         10.0150    -0.3620     0.0790 c3         1 A1H      -0.075400
     32 CAK         11.2800     0.4460    -0.1840 c3         1 A1H      -0.074400
     33 CAL         12.5530    -0.3440     0.0840 c3         1 A1H      -0.088100
     34 H7          -1.4230     1.1880     0.4840 h1         1 A1H       0.036700
     35 H8          -1.5330     0.3720    -1.0780 h1         1 A1H       0.036700
     36 H9          -0.0930    -0.7810     1.3570 hc         1 A1H       0.052700
     37 H10         -0.1250    -1.4760    -0.2570 hc         1 A1H       0.052700
     38 H11          1.0420     0.5850    -1.1310 hc         1 A1H       0.039200
     39 H12          1.0970     1.2220     0.4990 hc         1 A1H       0.039200
     40 H13          2.4210    -0.7970     1.2170 hc         1 A1H       0.039200
     41 H14          2.4000    -1.3770    -0.4330 hc         1 A1H       0.039200
     42 H15          3.6130     0.6940    -1.1680 hc         1 A1H       0.037700
     43 H16          3.6390     1.2580     0.4890 hc         1 A1H       0.037700
     44 H17          4.9470    -0.7770     1.1530 hc         1 A1H       0.037700
     45 H18          4.9360    -1.3210    -0.5100 hc         1 A1H       0.037700
     46 H19          6.1730     0.7460    -1.1940 hc         1 A1H       0.037200
     47 H20          6.1830     1.2900     0.4700 hc         1 A1H       0.037200
     48 H21          7.4830    -0.7450     1.1280 hc         1 A1H       0.037200
     49 H22          7.4770    -1.2870    -0.5350 hc         1 A1H       0.037200
     50 H23          8.7250     0.7730    -1.2140 hc         1 A1H       0.036700
     51 H24          8.7270     1.3200     0.4480 hc         1 A1H       0.036700
     52 H25         10.0220    -0.7180     1.1150 hc         1 A1H       0.036700
     53 H26         10.0230    -1.2600    -0.5480 hc         1 A1H       0.036700
     54 H27         11.2750     0.7960    -1.2200 hc         1 A1H       0.036700
     55 H28         11.2700     1.3460     0.4390 hc         1 A1H       0.036700
     56 H29         13.4450     0.2520    -0.1090 hc         1 A1H       0.031367
     57 H30         12.5970    -0.6790     1.1220 hc         1 A1H       0.031367
     58 H31         12.6050    -1.2320    -0.5490 hc         1 A1H       0.031367
     59 CAA         -1.4280     0.2040     0.0020 c3         1 A1H       0.169600
@<TRIPOS>BOND
     1     1     2 1   
     2     1     6 1   
     3     1     9 1   
     4     1    14 1   
     5     2     3 1   
     6     2    10 1   
     7     2    15 1   
     8     3     4 1   
     9     3     8 1   
    10     3    16 1   
    11     4    11 1   
    12     4    12 1   
    13     4    17 1   
    14     5    24 1   
    15     5    36 1   
    16     5    37 1   
    17     5    59 1   
    18     6     7 1   
    19     6    12 1   
    20     6    18 1   
    21     7    13 1   
    22     7    19 1   
    23     7    20 1   
    24     9    21 1   
    25    10    22 1   
    26    11    59 1   
    27    13    23 1   
    28    24    25 1   
    29    24    38 1   
    30    24    39 1   
    31    25    26 1   
    32    25    40 1   
    33    25    41 1   
    34    26    27 1   
    35    26    42 1   
    36    26    43 1   
    37    27    28 1   
    38    27    44 1   
    39    27    45 1   
    40    28    29 1   
    41    28    46 1   
    42    28    47 1   
    43    29    30 1   
    44    29    48 1   
    45    29    49 1   
    46    30    31 1   
    47    30    50 1   
    48    30    51 1   
    49    31    32 1   
    50    31    52 1   
    51    31    53 1   
    52    32    33 1   
    53    32    54 1   
    54    32    55 1   
    55    33    56 1   
    56    33    57 1   
    57    33    58 1   
    58    34    59 1   
    59    35    59 1   
@<TRIPOS>SUBSTRUCTURE
     1 A1H         1 TEMP              0 ****  ****    0 ROOT
