@<TRIPOS>MOLECULE
A1H
   27    26     1     0     0
SMALL
abcg2


@<TRIPOS>ATOM
      1 C5          29.5030    83.9450    44.1680 c3         1 A1H       0.204300
      2 C6          30.8620    83.8870    44.8630 c3         1 A1H       0.135600
      3 C8          29.4150    86.2740    43.3900 c3         1 A1H       0.224800
      4 C1          28.2650    85.6070    45.4600 c3         1 A1H       0.204300
      5 C2          27.0940    86.5640    45.3500 c3         1 A1H       0.135600
      6 O3          26.0410    85.9480    44.6450 oh         1 A1H      -0.661500
      7 N4          28.8180    85.2170    44.1810 n3         1 A1H      -0.762600
      8 O7          31.2790    82.5390    44.8690 oh         1 A1H      -0.661500
      9 C9          30.4360    87.1670    44.1050 c3         1 A1H      -0.393400
     10 S10         31.3490    88.2320    42.9680 s6         1 A1H       1.321600
     11 O11         32.1970    89.0820    43.8260 o          1 A1H      -0.696533
     12 O12         30.3240    88.9940    42.2250 o          1 A1H      -0.696533
     13 O13         32.1290    87.3220    42.1040 o          1 A1H      -0.696533
     14 H5A         28.8470    83.2060    44.6380 h1         1 A1H       0.037200
     15 H5B         29.6280    83.6290    43.1270 h1         1 A1H       0.037200
     16 H6A         31.5820    84.5200    44.3290 h1         1 A1H       0.023200
     17 H6B         30.7740    84.2880    45.8830 h1         1 A1H       0.023200
     18 H8B         28.6260    86.9160    42.9880 h1         1 A1H       0.059700
     19 H8A         29.8900    85.8030    42.5260 h1         1 A1H       0.059700
     20 H1B         27.9220    84.7010    45.9690 h1         1 A1H       0.037200
     21 H1A         28.9970    86.0700    46.1380 h1         1 A1H       0.037200
     22 H2B         27.4120    87.4970    44.8660 h1         1 A1H       0.023200
     23 H2A         26.7960    86.8340    46.3720 h1         1 A1H       0.023200
     24 H3          25.3150    86.5750    44.5820 ho         1 A1H       0.429000
     25 H7          32.1570    82.4960    45.2580 ho         1 A1H       0.429000
     26 H9B         31.1800    86.5790    44.6450 h1         1 A1H       0.061200
     27 H9A         29.9490    87.8230    44.8300 h1         1 A1H       0.061200
@<TRIPOS>BOND
     1     1     2 1   
     2     1     7 1   
     3     1    14 1   
     4     1    15 1   
     5     2     8 1   
     6     2    16 1   
     7     2    17 1   
     8     3     7 1   
     9     3     9 1   
    10     3    18 1   
    11     3    19 1   
    12     4     5 1   
    13     4     7 1   
    14     4    20 1   
    15     4    21 1   
    16     5     6 1   
    17     5    22 1   
    18     5    23 1   
    19     6    24 1   
    20     8    25 1   
    21     9    10 1   
    22     9    26 1   
    23     9    27 1   
    24    10    11 1   
    25    10    12 1   
    26    10    13 1   
@<TRIPOS>SUBSTRUCTURE
     1 A1H         1 TEMP              0 ****  ****    0 ROOT
