@<TRIPOS>MOLECULE
A1H
   52    56     1     0     0
SMALL
abcg2


@<TRIPOS>ATOM
      1 C1         -26.3490   -10.6550     5.3320 c3         1 A1H      -0.152400
      2 C2         -27.2530    -9.6670     4.6270 c          1 A1H       0.604100
      3 C3         -28.4360   -11.6320     3.6270 c5         1 A1H       0.099700
      4 C7         -32.5260   -11.6740    -0.7820 ca         1 A1H      -0.082000
      5 C8         -33.4510   -12.2470    -1.6420 ca         1 A1H      -0.118000
      6 C9         -34.0690   -13.4410    -1.3130 ca         1 A1H      -0.069000
      7 C10        -33.7560   -14.0740    -0.1060 ca         1 A1H       0.016000
      8 C11        -32.8360   -13.4890     0.7640 ca         1 A1H      -0.043000
      9 C12        -34.3620   -15.3140     0.2340 cg         1 A1H      -0.060000
     10 C13        -34.8630   -16.3730     0.5200 ch         1 A1H      -0.197000
     11 C14        -35.4470   -17.6360     0.8470 ca         1 A1H       0.260000
     12 C15        -35.6260   -19.3590     2.2950 ca         1 A1H       0.110400
     13 C16        -36.5250   -19.9880     1.4490 ca         1 A1H      -0.218000
     14 C19        -29.1430    -9.2970     3.1300 c5         1 A1H       0.198300
     15 C20        -31.8170    -9.3050     1.1640 ca         1 A1H       0.033800
     16 C21        -33.1880    -9.3240     1.3710 ca         1 A1H      -0.163000
     17 C22        -33.9200    -8.2230     0.9550 ca         1 A1H       0.348900
     18 C24        -31.2360    -8.1940     0.5740 ca         1 A1H      -0.163000
     19 O          -27.1300    -8.4560     4.7500 o          1 A1H      -0.604100
     20 C          -25.2920    -9.9920     6.1960 c3         1 A1H      -0.077100
     21 N          -28.2190   -10.1920     3.8460 n          1 A1H      -0.436800
     22 C18        -29.9450   -10.3150     2.4140 cc         1 A1H      -0.213300
     23 C4         -29.5780   -11.5830     2.6760 cd         1 A1H       0.215300
     24 N4         -31.0140   -10.3910     1.5690 na         1 A1H      -0.050300
     25 C23        -32.0670    -7.1450     0.2080 ca         1 A1H       0.348900
     26 N5         -33.3820    -7.1520     0.3850 nb         1 A1H      -0.658000
     27 C5         -31.2200   -11.7380     1.3520 cc         1 A1H       0.478000
     28 N1         -30.3600   -12.4740     2.0190 nd         1 A1H      -0.624000
     29 C6         -32.2210   -12.2860     0.4350 ca         1 A1H      -0.136500
     30 N3         -36.2980   -18.1500    -0.0370 nb         1 A1H      -0.155000
     31 C17        -36.8300   -19.3240     0.2720 ca         1 A1H       0.110400
     32 N2         -35.0840   -18.1850     2.0030 nb         1 A1H      -0.155000
     33 H1         -26.9660   -11.3250     5.9400 hc         1 A1H       0.056700
     34 H2         -25.8740   -11.2990     4.5860 hc         1 A1H       0.056700
     35 H3         -28.6830   -12.1480     4.5590 h1         1 A1H       0.061700
     36 H4         -27.5470   -12.1120     3.2060 h1         1 A1H       0.061700
     37 H5         -32.0290   -10.7600    -1.0790 ha         1 A1H       0.119000
     38 H6         -33.6780   -11.7650    -2.5830 ha         1 A1H       0.122000
     39 H7         -34.7850   -13.8920    -1.9880 ha         1 A1H       0.128000
     40 H8         -32.6010   -13.9740     1.7020 ha         1 A1H       0.143000
     41 H9         -35.3330   -19.8110     3.2360 h4         1 A1H       0.028600
     42 H10        -36.9620   -20.9450     1.6930 ha         1 A1H       0.138000
     43 H11        -28.6040    -8.6180     2.4630 h1         1 A1H       0.070200
     44 H12        -29.7280    -8.6860     3.8220 h1         1 A1H       0.070200
     45 H13        -33.6780   -10.1620     1.8470 ha         1 A1H       0.142000
     46 H14        -34.9950    -8.2100     1.1000 h4         1 A1H       0.028600
     47 H15        -30.1720    -8.1430     0.3850 ha         1 A1H       0.142000
     48 H16        -24.6860   -10.7520     6.6890 hc         1 A1H       0.042367
     49 H17        -24.6220    -9.3670     5.6070 hc         1 A1H       0.042367
     50 H18        -25.7370    -9.3680     6.9710 hc         1 A1H       0.042367
     51 H19        -31.6420    -6.2640    -0.2580 h4         1 A1H       0.028600
     52 H20        -37.5230   -19.7490    -0.4450 h4         1 A1H       0.028600
@<TRIPOS>BOND
     1     1     2 1   
     2     1    20 1   
     3     1    33 1   
     4     1    34 1   
     5     2    19 2   
     6     2    21 1   
     7     3    21 1   
     8     3    23 1   
     9     3    35 1   
    10     3    36 1   
    11     4     5 ar  
    12     4    29 ar  
    13     4    37 1   
    14     5     6 ar  
    15     5    38 1   
    16     6     7 ar  
    17     6    39 1   
    18     7     8 ar  
    19     7     9 1   
    20     8    29 ar  
    21     8    40 1   
    22     9    10 3   
    23    10    11 1   
    24    11    30 ar  
    25    11    32 ar  
    26    12    13 ar  
    27    12    32 ar  
    28    12    41 1   
    29    13    31 ar  
    30    13    42 1   
    31    14    21 1   
    32    14    22 1   
    33    14    43 1   
    34    14    44 1   
    35    15    16 ar  
    36    15    18 ar  
    37    15    24 1   
    38    16    17 ar  
    39    16    45 1   
    40    17    26 ar  
    41    17    46 1   
    42    18    25 ar  
    43    18    47 1   
    44    20    48 1   
    45    20    49 1   
    46    20    50 1   
    47    22    23 2   
    48    22    24 1   
    49    23    28 1   
    50    24    27 1   
    51    25    26 ar  
    52    25    51 1   
    53    27    28 2   
    54    27    29 1   
    55    30    31 ar  
    56    31    52 1   
@<TRIPOS>SUBSTRUCTURE
     1 A1H         1 TEMP              0 ****  ****    0 ROOT
