@<TRIPOS>MOLECULE
A1H
   14    15     1     0     0
SMALL
abcg2


@<TRIPOS>ATOM
      1 C1           1.1250    21.6310   -13.3530 ca         1 A1H       0.064100
      2 C2           0.2380    20.6180   -13.0300 ca         1 A1H      -0.160000
      3 C3           0.7030    19.4940   -12.3390 ca         1 A1H       0.353900
      4 N1           1.9590    19.3110   -11.9540 nb         1 A1H      -0.655000
      5 C4           2.7730    20.2940   -12.2790 ca         1 A1H       0.337500
      6 C5           4.5140    21.5870   -12.5510 cc         1 A1H       0.429700
      7 C6           2.4490    21.4770   -12.9710 ca         1 A1H       0.045400
      8 BR1          0.5770    23.1670   -14.2720 br         1 A1H      -0.053100
      9 N2           4.1100    20.4040   -12.0280 na         1 A1H      -0.418300
     10 N3           3.5570    22.2620   -13.1240 nd         1 A1H      -0.551100
     11 H1          -0.8070    20.6760   -13.3010 ha         1 A1H       0.139000
     12 H2           0.0010    18.7080   -12.0910 h4         1 A1H       0.026100
     13 H4           5.5430    21.9090   -12.4820 h5         1 A1H       0.068800
     14 H3           4.6920    19.7340   -11.5470 hn         1 A1H       0.371000
@<TRIPOS>BOND
     1     1     2 ar  
     2     1     7 ar  
     3     1     8 1   
     4     2     3 ar  
     5     2    11 1   
     6     3     4 ar  
     7     3    12 1   
     8     4     5 ar  
     9     5     7 ar  
    10     5     9 1   
    11     6     9 1   
    12     6    10 2   
    13     6    13 1   
    14     7    10 1   
    15     9    14 1   
@<TRIPOS>SUBSTRUCTURE
     1 A1H         1 TEMP              0 ****  ****    0 ROOT
