@<TRIPOS>MOLECULE
A1H
   49    48     1     0     0
SMALL
abcg2


@<TRIPOS>ATOM
      1 C1         145.3380   124.1570   100.9490 c3         1 A1H       0.080567
      2 C12        143.8810   126.9210    96.9070 c3         1 A1H       0.230600
      3 C13        145.3270   126.5030    97.1860 c3         1 A1H      -0.157400
      4 C14        145.6730   125.1600    96.5890 c3         1 A1H       0.165000
      5 C17        147.1710   124.7790    96.7350 c3         1 A1H       0.096000
      6 C20        147.5170   123.2970    96.3990 c3         1 A1H       0.112000
      7 C23        149.0370   123.0140    96.2000 c3         1 A1H       0.111000
      8 C26        149.4090   121.5060    96.2940 c3         1 A1H       0.078000
      9 C29        150.8360   121.1470    95.8080 c3         1 A1H       0.287000
     10 C3         145.7210   126.4540   101.6540 c3         1 A1H       0.080567
     11 C4         145.0770   124.7770   103.2750 c3         1 A1H       0.080567
     12 C5         143.4150   125.5230   101.6880 c3         1 A1H       0.091600
     13 C6         142.9400   125.9110   100.3080 c3         1 A1H       0.214600
     14 F15        145.3710   125.1320    95.2680 f          1 A1H      -0.094000
     15 F16        144.9470   124.1710    97.1750 f          1 A1H      -0.094000
     16 F18        147.8900   125.5920    95.9400 f          1 A1H      -0.080000
     17 F19        147.5460   125.0010    98.0070 f          1 A1H      -0.080000
     18 F21        146.8890   122.9350    95.2700 f          1 A1H      -0.065000
     19 F22        147.0690   122.5320    97.4080 f          1 A1H      -0.065000
     20 F24        149.3970   123.4780    94.9930 f          1 A1H      -0.061500
     21 F25        149.7410   123.6700    97.1340 f          1 A1H      -0.061500
     22 F27        149.3170   121.1220    97.5770 f          1 A1H      -0.063500
     23 F28        148.5510   120.7820    95.5600 f          1 A1H      -0.063500
     24 F30        151.7510   121.8550    96.4570 f          1 A1H      -0.080333
     25 F31        151.0530   119.8600    96.0450 f          1 A1H      -0.080333
     26 F32        150.9650   121.3610    94.5080 f          1 A1H      -0.080333
     27 N2         144.8860   125.2360   101.8690 n4         1 A1H      -0.490000
     28 O10        142.6280   129.5430    99.3920 o          1 A1H      -0.778000
     29 O11        143.6190   128.1180    97.6080 os         1 A1H      -0.572400
     30 O7         143.3830   127.2020    99.9680 os         1 A1H      -0.618400
     31 O9         141.2950   127.4620    98.4990 o          1 A1H      -0.778000
     32 P8         142.5710   128.1480    98.8740 p5         1 A1H       1.373800
     33 H1         146.3690   123.9070   101.1860 hx         1 A1H       0.092144
     34 H2         144.7060   123.2830   101.0840 hx         1 A1H       0.092144
     35 H3         145.2810   124.4990    99.9210 hx         1 A1H       0.092144
     36 H4         143.7400   127.1140    95.8420 h1         1 A1H       0.045200
     37 H5         143.1840   126.1250    97.1850 h1         1 A1H       0.045200
     38 H6         145.4840   126.4590    98.2630 hc         1 A1H       0.077700
     39 H7         146.0070   127.2600    96.7900 hc         1 A1H       0.077700
     40 H8         145.3600   127.2510   102.2990 hx         1 A1H       0.092144
     41 H9         146.7500   126.2130   101.9080 hx         1 A1H       0.092144
     42 H10        145.6620   126.7630   100.6180 hx         1 A1H       0.092144
     43 H11        144.7450   125.5600   103.9520 hx         1 A1H       0.092144
     44 H12        144.4930   123.8750   103.4390 hx         1 A1H       0.092144
     45 H13        146.1300   124.5690   103.4400 hx         1 A1H       0.092144
     46 H14        143.1610   126.2990   102.4110 hx         1 A1H       0.085700
     47 H15        142.8980   124.6070   101.9760 hx         1 A1H       0.085700
     48 H16        141.8490   125.8610   100.3610 h1         1 A1H       0.058200
     49 H17        143.2430   125.1720    99.5590 h1         1 A1H       0.058200
@<TRIPOS>BOND
     1     1    27 1   
     2     1    33 1   
     3     1    34 1   
     4     1    35 1   
     5     2     3 1   
     6     2    29 1   
     7     2    36 1   
     8     2    37 1   
     9     3     4 1   
    10     3    38 1   
    11     3    39 1   
    12     4     5 1   
    13     4    14 1   
    14     4    15 1   
    15     5     6 1   
    16     5    16 1   
    17     5    17 1   
    18     6     7 1   
    19     6    18 1   
    20     6    19 1   
    21     7     8 1   
    22     7    20 1   
    23     7    21 1   
    24     8     9 1   
    25     8    22 1   
    26     8    23 1   
    27     9    24 1   
    28     9    25 1   
    29     9    26 1   
    30    10    27 1   
    31    10    40 1   
    32    10    41 1   
    33    10    42 1   
    34    11    27 1   
    35    11    43 1   
    36    11    44 1   
    37    11    45 1   
    38    12    13 1   
    39    12    27 1   
    40    12    46 1   
    41    12    47 1   
    42    13    30 1   
    43    13    48 1   
    44    13    49 1   
    45    28    32 1   
    46    29    32 1   
    47    30    32 1   
    48    31    32 1   
@<TRIPOS>SUBSTRUCTURE
     1 A1H         1 TEMP              0 ****  ****    0 ROOT
