@<TRIPOS>MOLECULE
A1H
   54    56     1     0     0
SMALL
abcg2


@<TRIPOS>ATOM
      1 C01         -0.6070   -17.3400    14.4620 c3         1 A1H      -0.087100
      2 C02          0.3380   -17.7470    15.5850 c3         1 A1H      -0.111700
      3 C03         -0.2050   -17.4110    16.9250 cc         1 A1H       0.489300
      4 C05         -1.3420   -17.0400    18.6260 cd         1 A1H       0.508300
      5 C06         -2.5250   -16.8460    19.5280 c3         1 A1H       0.154500
      6 C08         -2.7620   -14.4980    19.0070 c6         1 A1H       0.141800
      7 C09         -3.7700   -13.3870    18.7500 c6         1 A1H       0.085500
      8 C11         -5.2620   -14.9810    17.7550 c6         1 A1H       0.085500
      9 C12         -4.2460   -16.0920    17.9640 c6         1 A1H       0.141800
     10 C13         -4.2940   -13.2770    16.3260 c          1 A1H       0.634700
     11 C15         -3.6280   -11.9620    16.2080 cc         1 A1H      -0.257600
     12 C17         -3.2870    -9.7920    16.6310 cc         1 A1H      -0.068300
     13 C18         -3.5720    -8.4770    17.2640 c3         1 A1H      -0.034800
     14 C19         -2.3360   -10.1960    15.6880 cd         1 A1H      -0.262600
     15 C20         -1.3470    -9.2660    15.1420 c          1 A1H       0.613700
     16 C22         -0.4280    -9.7120    14.0350 c3         1 A1H      -0.191100
     17 C23         -2.5710   -11.5860    15.4140 cd         1 A1H      -0.031300
     18 C24         -1.7830   -12.5390    14.5670 c3         1 A1H      -0.023100
     19 C25         -0.5830   -13.1290    15.3100 c3         1 A1H      -0.086100
     20 N04         -1.4330   -17.4480    17.3260 nd         1 A1H      -0.723000
     21 N07         -3.4210   -15.7840    19.1210 n3         1 A1H      -0.729600
     22 N10         -4.5780   -13.7100    17.5830 n          1 A1H      -0.403800
     23 N16         -4.0320   -10.8650    16.9270 na         1 A1H      -0.088000
     24 N26         -0.1300   -16.7750    19.0020 nc         1 A1H      -0.374300
     25 O14         -4.6080   -13.9070    15.3250 o          1 A1H      -0.577100
     26 O21         -1.2690    -8.1230    15.5640 o          1 A1H      -0.560100
     27 O27          0.6240   -17.0220    17.8840 os         1 A1H      -0.091700
     28 H1          -0.1770   -17.6150    13.5000 hc         1 A1H       0.049367
     29 H2          -1.5730   -17.8340    14.5520 hc         1 A1H       0.049367
     30 H3          -0.7750   -16.2630    14.4590 hc         1 A1H       0.049367
     31 H4           0.5170   -18.8260    15.5530 hc         1 A1H       0.072700
     32 H5           1.3120   -17.2710    15.4630 hc         1 A1H       0.072700
     33 H6          -3.0900   -17.7800    19.5810 h1         1 A1H       0.077700
     34 H7          -2.1540   -16.6330    20.5330 h1         1 A1H       0.077700
     35 H8          -2.0140   -14.4740    18.1980 h1         1 A1H       0.051950
     36 H9          -2.2320   -14.2850    19.9390 h1         1 A1H       0.051950
     37 H10         -3.2350   -12.4510    18.6170 h1         1 A1H       0.066200
     38 H11         -4.4340   -13.2720    19.6090 h1         1 A1H       0.066200
     39 H12         -5.9080   -14.8980    18.6320 h1         1 A1H       0.066200
     40 H13         -5.8880   -15.1920    16.8920 h1         1 A1H       0.066200
     41 H14         -4.7670   -17.0350    18.1450 h1         1 A1H       0.051950
     42 H15         -3.6630   -16.2110    17.0410 h1         1 A1H       0.051950
     43 H16         -3.7740    -7.7090    16.5190 hc         1 A1H       0.058700
     44 H17         -4.4380    -8.5510    17.9210 hc         1 A1H       0.058700
     45 H18         -2.7260    -8.1320    17.8580 hc         1 A1H       0.058700
     46 H19          0.2370    -8.8980    13.7570 hc         1 A1H       0.058700
     47 H20          0.1770   -10.5670    14.3370 hc         1 A1H       0.058700
     48 H21         -0.9960   -10.0140    13.1540 hc         1 A1H       0.058700
     49 H22         -1.4490   -12.0560    13.6500 hc         1 A1H       0.058700
     50 H23         -2.4300   -13.3540    14.2480 hc         1 A1H       0.058700
     51 H24         -0.0320   -13.8170    14.6680 hc         1 A1H       0.032700
     52 H25          0.1100   -12.3570    15.6450 hc         1 A1H       0.032700
     53 H26         -0.9090   -13.6820    16.1920 hc         1 A1H       0.032700
     54 H28         -4.8310   -10.8420    17.5440 hn         1 A1H       0.353000
@<TRIPOS>BOND
     1     1     2 1   
     2     1    28 1   
     3     1    29 1   
     4     1    30 1   
     5     2     3 1   
     6     2    31 1   
     7     2    32 1   
     8     3    20 2   
     9     3    27 1   
    10     4     5 1   
    11     4    20 1   
    12     4    24 2   
    13     5    21 1   
    14     5    33 1   
    15     5    34 1   
    16     6     7 1   
    17     6    21 1   
    18     6    35 1   
    19     6    36 1   
    20     7    22 1   
    21     7    37 1   
    22     7    38 1   
    23     8     9 1   
    24     8    22 1   
    25     8    39 1   
    26     8    40 1   
    27     9    21 1   
    28     9    41 1   
    29     9    42 1   
    30    10    11 1   
    31    10    22 1   
    32    10    25 2   
    33    11    17 2   
    34    11    23 1   
    35    12    13 1   
    36    12    14 2   
    37    12    23 1   
    38    13    43 1   
    39    13    44 1   
    40    13    45 1   
    41    14    15 1   
    42    14    17 1   
    43    15    16 1   
    44    15    26 2   
    45    16    46 1   
    46    16    47 1   
    47    16    48 1   
    48    17    18 1   
    49    18    19 1   
    50    18    49 1   
    51    18    50 1   
    52    19    51 1   
    53    19    52 1   
    54    19    53 1   
    55    23    54 1   
    56    24    27 1   
@<TRIPOS>SUBSTRUCTURE
     1 A1H         1 TEMP              0 ****  ****    0 ROOT
