@<TRIPOS>MOLECULE
A1H
   45    49     1     0     0
SMALL
abcg2


@<TRIPOS>ATOM
      1 N1         -11.0700    28.4730   -36.4250 na         1 A1H       0.225000
      2 N3         -10.4270    29.6140   -34.7700 nc         1 A1H      -0.333000
      3 C4         -12.4150    27.5770   -38.2540 ca         1 A1H       0.203000
      4 C5         -11.2870    28.2280   -37.7960 ca         1 A1H      -0.063200
      5 C6         -10.8860    28.4380   -34.2940 cc         1 A1H       0.176300
      6 C7         -10.8900    28.0830   -32.8390 c3         1 A1H       0.219300
      7 C8         -10.5610    29.2760   -31.9820 cc         1 A1H      -0.156300
      8 C10         -8.3230    28.4520   -31.2230 cx         1 A1H      -0.198000
      9 C13        -10.0650    31.5170   -30.4740 cc         1 A1H       0.429900
     10 C15        -12.3810    32.2420   -31.3920 cd         1 A1H      -0.038400
     11 C17        -11.3070    27.6850   -35.3570 cd         1 A1H      -0.151000
     12 C1         -12.9880    27.0490   -42.3800 c3         1 A1H       0.143900
     13 C2         -11.7310    27.8350   -40.5390 ca         1 A1H       0.147100
     14 C3         -12.6440    27.3660   -39.6020 ca         1 A1H      -0.224000
     15 N2         -10.5430    29.6350   -36.0470 nd         1 A1H      -0.184800
     16 C9          -9.4190    29.4480   -31.2570 cd         1 A1H       0.375300
     17 C11         -6.8950    28.9200   -31.1270 cx         1 A1H      -0.104900
     18 C12         -7.5340    28.2590   -29.9550 cx         1 A1H      -0.104900
     19 N4          -9.1840    30.5730   -30.5020 nd         1 A1H      -0.690000
     20 C14        -11.2740    31.4420   -31.1910 cc         1 A1H      -0.247000
     21 N5         -13.2410    31.6210   -32.2190 nd         1 A1H      -0.560300
     22 C16        -12.7040    30.4590   -32.5360 cc         1 A1H       0.368700
     23 N6         -11.5020    30.2960   -31.9380 na         1 A1H       0.088200
     24 O2         -12.1570    27.5400   -32.5470 oh         1 A1H      -0.655000
     25 C18        -10.3610    28.6890   -38.7300 ca         1 A1H      -0.074000
     26 F1         -13.3230    27.1350   -37.3800 f          1 A1H      -0.161000
     27 C19        -10.5930    28.5010   -40.0670 ca         1 A1H       0.133000
     28 F2          -9.7100    28.9560   -40.9620 f          1 A1H      -0.152000
     29 H5         -10.1200    27.3240   -32.6750 h1         1 A1H       0.059700
     30 H6          -8.4640    27.5570   -31.8120 hc         1 A1H       0.075700
     31 H11         -9.8580    32.3980   -29.8750 h4         1 A1H       0.033100
     32 H15        -11.7080    26.6890   -35.4230 h4         1 A1H       0.183000
     33 H3         -12.8790    27.0580   -43.4610 h1         1 A1H       0.051033
     34 H2         -13.0490    26.0140   -42.0370 h1         1 A1H       0.051033
     35 H1         -13.9090    27.5720   -42.1110 h1         1 A1H       0.051033
     36 H4         -13.5470    26.8470   -39.8960 ha         1 A1H       0.147000
     37 H8          -6.1590    28.3690   -31.6970 hc         1 A1H       0.078700
     38 H7          -6.7220    29.9870   -31.0730 hc         1 A1H       0.078700
     39 H10         -7.2440    27.2460   -29.7080 hc         1 A1H       0.078700
     40 H9          -7.7960    28.8760   -29.1060 hc         1 A1H       0.078700
     41 H14        -12.1210    27.1340   -31.6740 ho         1 A1H       0.458000
     42 H16         -9.4630    29.1990   -38.4070 ha         1 A1H       0.165000
     43 H12        -12.5710    33.2180   -30.9740 h4         1 A1H       0.230000
     44 H17        -13.1580    29.7240   -33.1770 h5         1 A1H       0.084800
     45 O1         -11.8440    27.7060   -41.8590 os         1 A1H      -0.313100
@<TRIPOS>BOND
     1     1     4 1   
     2     1    11 1   
     3     1    15 1   
     4     2     5 1   
     5     2    15 2   
     6     3     4 ar  
     7     3    14 ar  
     8     3    26 1   
     9     4    25 ar  
    10     5     6 1   
    11     5    11 2   
    12     6     7 1   
    13     6    24 1   
    14     6    29 1   
    15     7    16 2   
    16     7    23 1   
    17     8    16 1   
    18     8    17 1   
    19     8    18 1   
    20     8    30 1   
    21     9    19 2   
    22     9    20 1   
    23     9    31 1   
    24    10    20 2   
    25    10    21 1   
    26    10    43 1   
    27    11    32 1   
    28    12    33 1   
    29    12    34 1   
    30    12    35 1   
    31    12    45 1   
    32    13    14 ar  
    33    13    27 ar  
    34    13    45 1   
    35    14    36 1   
    36    16    19 1   
    37    17    18 1   
    38    17    37 1   
    39    17    38 1   
    40    18    39 1   
    41    18    40 1   
    42    20    23 1   
    43    21    22 2   
    44    22    23 1   
    45    22    44 1   
    46    24    41 1   
    47    25    27 ar  
    48    25    42 1   
    49    27    28 1   
@<TRIPOS>SUBSTRUCTURE
     1 A1H         1 TEMP              0 ****  ****    0 ROOT
