@<TRIPOS>MOLECULE
A1H
  174   181     1     0     0
SMALL
abcg2


@<TRIPOS>ATOM
      1 C4          -6.7270     7.9580    -1.7380 c3         1 A1H      -0.083400
      2 C8         -10.3480     5.1150    -2.6640 ca         1 A1H      -0.171000
      3 C7          -9.3440     5.4170    -1.7420 ca         1 A1H       0.148100
      4 C9         -11.3180     4.1760    -2.3570 ca         1 A1H      -0.069500
      5 C10        -11.3240     3.5130    -1.1310 ca         1 A1H      -0.124300
      6 C5          -7.4860     6.7800    -1.1630 c3         1 A1H       0.162600
      7 C13        -12.8630     0.0240    -0.7210 cc         1 A1H       0.418800
      8 C12        -11.8670     1.0570    -1.1140 c3         1 A1H      -0.094700
      9 C11        -12.3630     2.4800    -0.8020 c3         1 A1H      -0.023100
     10 C16        -14.0200    -1.3270     0.5680 ca         1 A1H      -0.078200
     11 C15        -14.5000    -1.3410    -0.7500 ca         1 A1H       0.069400
     12 C24         -8.0110    -1.3800     4.0750 c6         1 A1H       0.164300
     13 C22         -8.1640     0.8700     3.3560 c6         1 A1H       0.164300
     14 C25         -9.0240    -1.7940     3.0140 c6         1 A1H       0.123300
     15 C27         -4.9920    -1.1230     3.3300 c          1 A1H       0.596100
     16 O28         -4.6060    -0.9010     4.4660 o          1 A1H      -0.572100
     17 C19        -10.9050    -1.0920     1.7110 c3         1 A1H       0.140800
     18 C21         -9.1660     0.4740     2.2810 c6         1 A1H       0.123300
     19 C26         -6.2210    -0.4410     2.7320 c3         1 A1H       0.085800
     20 C3          -5.7100     8.4690    -0.7230 c3         1 A1H       0.166800
     21 C30         -3.0810    -2.5690     2.7080 c3         1 A1H       0.100000
     22 C31         -1.9430    -1.8820     1.9620 c3         1 A1H      -0.100400
     23 C32         -0.6170    -2.6150     2.1220 c3         1 A1H      -0.072400
     24 C33          0.5090    -1.9840     1.3130 c3         1 A1H      -0.074400
     25 C34          1.8340    -2.7270     1.4360 c3         1 A1H      -0.074400
     26 C35          2.9360    -2.1250     0.5730 c3         1 A1H      -0.077400
     27 C36          4.2560    -2.8810     0.6750 c3         1 A1H      -0.063400
     28 C37          5.3210    -2.2830    -0.2290 c3         1 A1H      -0.157400
     29 C38          6.6420    -3.0270    -0.2150 c          1 A1H       0.604100
     30 C41          8.9160    -3.0160    -1.1860 c3         1 A1H       0.050700
     31 C42          9.8980    -1.8990    -0.8310 c          1 A1H       0.602100
     32 C45         11.7840    -1.0990     0.4410 c5         1 A1H       0.025700
     33 C46         12.6090    -1.7280     1.5690 c5         1 A1H      -0.085400
     34 C47         12.5990    -3.2130     1.2380 c5         1 A1H       0.154300
     35 C48         11.1790    -3.4260     0.7050 c5         1 A1H       0.069000
     36 C50         12.6900    -0.6690    -0.7110 c          1 A1H       0.601100
     37 C53         14.0240     1.2370    -1.5470 c3         1 A1H       0.153300
     38 C54         15.3030     1.5440    -0.8190 ca         1 A1H      -0.161300
     39 C55         16.1770     0.5270    -0.4270 ca         1 A1H      -0.071500
     40 C56         17.3380     0.7980     0.2670 ca         1 A1H      -0.162500
     41 C57         17.7130     2.1180     0.6160 ca         1 A1H       0.084200
     42 C58         16.8070     3.1290     0.2380 ca         1 A1H      -0.162500
     43 C59         15.6450     2.8420    -0.4640 ca         1 A1H      -0.071500
     44 C66          9.1400    -3.6060    -2.6090 c3         1 A1H      -0.048000
     45 C67         10.5760    -4.1170    -2.7360 c3         1 A1H      -0.088767
     46 C68          8.1860    -4.7920    -2.7840 c3         1 A1H      -0.088767
     47 C69          8.8640    -2.5880    -3.7160 c3         1 A1H      -0.088767
     48 C70        -14.5960    -2.0950     1.5730 ca         1 A1H      -0.114000
     49 C71        -15.6790    -2.8780     1.2200 ca         1 A1H      -0.083000
     50 C72        -16.1870    -2.9050    -0.0950 ca         1 A1H      -0.026000
     51 C73        -15.5930    -2.1340    -1.0870 ca         1 A1H      -0.042000
     52 C74        -17.3470    -3.7430    -0.4130 cc         1 A1H      -0.175000
     53 C75        -18.6020    -3.8050     0.2650 cc         1 A1H       0.290300
     54 C78        -17.5050    -4.6120    -1.4470 cd         1 A1H       0.198300
     55 C79        -16.6090    -5.0460    -2.5430 c3         1 A1H      -0.138400
     56 C80        -19.0280    -3.0480     1.4720 c3         1 A1H      -0.133400
     57 C81        -10.3120     3.8170    -0.2290 ca         1 A1H      -0.069500
     58 C82         -9.3270     4.7520    -0.5180 ca         1 A1H      -0.171000
     59 N14        -13.7550    -0.4880    -1.5270 nd         1 A1H      -0.572100
     60 N17        -12.9780    -0.4370     0.5610 na         1 A1H      -0.179600
     61 N20         -9.9270    -0.6950     2.7010 n3         1 A1H      -0.710600
     62 N23         -7.2460    -0.1960     3.7170 n3         1 A1H      -0.691600
     63 N29         -4.3630    -1.9430     2.4710 ns         1 A1H      -0.515900
     64 N40          7.5850    -2.4840    -1.0140 ns         1 A1H      -0.504900
     65 N44         10.8880    -2.1680     0.0350 n          1 A1H      -0.389800
     66 N76        -19.4100    -4.6340    -0.3270 nd         1 A1H      -0.368300
     67 O39          6.8290    -4.0350     0.4490 o          1 A1H      -0.608100
     68 O43          9.7590    -0.7760    -1.3010 o          1 A1H      -0.614100
     69 O49         12.9040    -3.9780     2.3700 oh         1 A1H      -0.648000
     70 O51         13.1020    -1.4720    -1.5350 o          1 A1H      -0.608100
     71 O6          -8.4490     6.3550    -2.1120 os         1 A1H      -0.344100
     72 O77        -18.7290    -5.1420    -1.3940 os         1 A1H      -0.073700
     73 H4B         -6.2070     7.6630    -2.6530 hc         1 A1H       0.064200
     74 H8         -10.3680     5.6300    -3.6170 ha         1 A1H       0.123000
     75 H9         -12.0930     3.9640    -3.0840 ha         1 A1H       0.110000
     76 H5B         -6.7970     5.9600    -0.9270 h1         1 A1H       0.032700
     77 H5A         -7.9780     7.0750    -0.2290 h1         1 A1H       0.032700
     78 H12A       -10.9090     0.8810    -0.6180 hc         1 A1H       0.065200
     79 H12B       -11.6880     0.9640    -2.1850 hc         1 A1H       0.065200
     80 H11A       -12.6340     2.5560     0.2540 hc         1 A1H       0.055200
     81 H11B       -13.2760     2.6670    -1.3720 hc         1 A1H       0.055200
     82 H24A        -8.5430    -1.1710     5.0080 h1         1 A1H       0.065950
     83 H24B        -7.3330    -2.2130     4.2770 h1         1 A1H       0.065950
     84 H22B        -7.5980     1.7440     3.0260 h1         1 A1H       0.065950
     85 H22A        -8.7140     1.1640     4.2560 h1         1 A1H       0.065950
     86 H25A        -8.5000    -2.1520     2.1120 h1         1 A1H       0.035200
     87 H25B        -9.6080    -2.6370     3.3920 h1         1 A1H       0.035200
     88 H19B       -11.2690    -2.0920     1.9590 h1         1 A1H       0.044200
     89 H19A       -10.4620    -1.1620     0.7030 h1         1 A1H       0.044200
     90 H18A       -12.6770    -0.2230     2.5970 h1         1 A1H       0.068200
     91 H18B       -11.7890     0.8970     1.5980 h1         1 A1H       0.068200
     92 H21A        -9.8360     1.3190     2.1140 h1         1 A1H       0.035200
     93 H21B        -8.6470     0.2900     1.3240 h1         1 A1H       0.035200
     94 H26A        -5.8720     0.5240     2.3490 h1         1 A1H       0.042700
     95 H26B        -6.5610    -1.0010     1.8490 h1         1 A1H       0.042700
     96 H3A         -6.2370     8.7800     0.1970 h1         1 A1H       0.028700
     97 H1          -5.0610     7.6360    -0.4360 h1         1 A1H       0.028700
     98 H30A        -3.1470    -3.6150     2.3970 h1         1 A1H       0.057700
     99 H30B        -2.8900    -2.5690     3.7810 h1         1 A1H       0.057700
    100 H31B        -2.1970    -1.8240     0.8980 hc         1 A1H       0.043200
    101 H31A        -1.8460    -0.8520     2.3160 hc         1 A1H       0.043200
    102 H32B        -0.3370    -2.6450     3.1800 hc         1 A1H       0.040700
    103 H32A        -0.7420    -3.6590     1.8110 hc         1 A1H       0.040700
    104 H33A         0.2150    -1.9470     0.2580 hc         1 A1H       0.037700
    105 H33B         0.6450    -0.9430     1.6250 hc         1 A1H       0.037700
    106 H34B         2.1530    -2.7350     2.4840 hc         1 A1H       0.040700
    107 H34A         1.6880    -3.7750     1.1550 hc         1 A1H       0.040700
    108 H35A         2.6070    -2.1120    -0.4720 hc         1 A1H       0.035700
    109 H35B         3.0900    -1.0780     0.8540 hc         1 A1H       0.035700
    110 H36B         4.6000    -2.8750     1.7130 hc         1 A1H       0.055200
    111 H36A         4.0920    -3.9290     0.4100 hc         1 A1H       0.055200
    112 H37A         4.9600    -2.2540    -1.2630 hc         1 A1H       0.057700
    113 H37B         5.5050    -1.2380     0.0430 hc         1 A1H       0.057700
    114 H41          9.0120    -3.8400    -0.4790 h1         1 A1H       0.088700
    115 H45         11.2130    -0.2420     0.8040 h1         1 A1H       0.076700
    116 H46A        13.6120    -1.3080     1.6450 hc         1 A1H       0.070700
    117 H46B        12.1050    -1.5640     2.5240 hc         1 A1H       0.070700
    118 H47         13.3090    -3.4070     0.4260 h1         1 A1H       0.060700
    119 H48A        11.1250    -4.2740     0.0250 h1         1 A1H       0.059700
    120 H48B        10.4890    -3.6040     1.5360 h1         1 A1H       0.059700
    121 H53A        13.6040     2.1540    -1.9650 h1         1 A1H       0.063700
    122 H53B        14.2000     0.5580    -2.3800 h1         1 A1H       0.063700
    123 H55         15.9460    -0.5030    -0.6750 ha         1 A1H       0.108000
    124 H56         17.9770    -0.0350     0.5390 ha         1 A1H       0.100500
    125 H58         16.9940     4.1580     0.5120 ha         1 A1H       0.100500
    126 H59         14.9830     3.6600    -0.7300 ha         1 A1H       0.108000
    127 H67B        10.7840    -4.9070    -2.0110 hc         1 A1H       0.039922
    128 H67A        10.7320    -4.5420    -3.7290 hc         1 A1H       0.039922
    129 H67C        11.3170    -3.3280    -2.6000 hc         1 A1H       0.039922
    130 H68C         7.1410    -4.4840    -2.7360 hc         1 A1H       0.039922
    131 H68A         8.3470    -5.2550    -3.7590 hc         1 A1H       0.039922
    132 H68B         8.3540    -5.5550    -2.0220 hc         1 A1H       0.039922
    133 H69C         9.5620    -1.7510    -3.6980 hc         1 A1H       0.039922
    134 H69B         8.9620    -3.0760    -4.6870 hc         1 A1H       0.039922
    135 H69A         7.8510    -2.1880    -3.6610 hc         1 A1H       0.039922
    136 H70        -14.2200    -2.0910     2.5880 ha         1 A1H       0.120000
    137 H71        -16.1410    -3.5000     1.9750 ha         1 A1H       0.116000
    138 H73        -15.9850    -2.1290    -2.0960 ha         1 A1H       0.130000
    139 H79B       -16.6310    -6.1290    -2.6660 hc         1 A1H       0.064033
    140 H79C       -16.8990    -4.5970    -3.4940 hc         1 A1H       0.064033
    141 H79A       -15.5860    -4.7430    -2.3310 hc         1 A1H       0.064033
    142 H80B       -18.7710    -1.9940     1.3740 hc         1 A1H       0.056367
    143 H80C       -20.1020    -3.1320     1.6240 hc         1 A1H       0.056367
    144 H80A       -18.5300    -3.4220     2.3670 hc         1 A1H       0.056367
    145 H81        -10.2890     3.3170     0.7340 ha         1 A1H       0.110000
    146 H82         -8.5630     4.9490     0.2230 ha         1 A1H       0.123000
    147 H29         -4.7580    -2.0580     1.5510 hn         1 A1H       0.304500
    148 H40          7.3620    -1.6270    -1.4950 hn         1 A1H       0.327500
    149 H52         12.6550     1.2050     0.0520 hn         1 A1H       0.311500
    150 H49         13.0710    -4.8840     2.0930 ho         1 A1H       0.450000
    151 H3          -7.4400     8.7420    -2.0020 hc         1 A1H       0.064200
    152 C1          18.9360     2.4230     1.2960 ce         1 A1H      -0.707400
    153 S1          19.7400     1.2280     2.2000 sx         1 A1H       0.098400
    154 C6          20.9340     2.4810     2.7710 ce         1 A1H       0.556500
    155 N1          20.6370     3.6510     2.4710 n2         1 A1H      -0.487900
    156 C17         19.4220     3.8030     1.6870 c5         1 A1H       0.192700
    157 C20         19.7600     4.6760     0.4770 c3         1 A1H      -0.063100
    158 N2          -4.8640     9.5310    -1.2320 n3         1 A1H      -0.709600
    159 C14         -5.5990    10.7540    -1.4760 c3         1 A1H       0.148100
    160 C23         -3.7550     9.7750    -0.3340 c3         1 A1H       0.148100
    161 H4          21.7910     2.1550     3.3470 h5         1 A1H       0.060800
    162 H7          18.7250     4.3590     2.3330 h1         1 A1H       0.072700
    163 H10         20.5370     4.2020    -0.1220 hc         1 A1H       0.046367
    164 H11         18.8900     4.8250    -0.1590 hc         1 A1H       0.046367
    165 H12         20.1110     5.6570     0.7970 hc         1 A1H       0.046367
    166 H13         -6.0850    11.1530    -0.5710 h1         1 A1H       0.031533
    167 H14         -4.9240    11.5220    -1.8560 h1         1 A1H       0.031533
    168 H15         -6.3720    10.6050    -2.2290 h1         1 A1H       0.031533
    169 H16         -3.1710     8.8630    -0.2010 h1         1 A1H       0.031533
    170 H17         -3.0950    10.5360    -0.7530 h1         1 A1H       0.031533
    171 H18         -4.0690    10.1200     0.6640 h1         1 A1H       0.031533
    172 H2          19.2020     1.0440     3.4700 hs         1 A1H       0.207000
    173 C18        -12.1020    -0.1430     1.6750 c3         1 A1H       0.076600
    174 N52         13.0280     0.6270    -0.6850 ns         1 A1H      -0.492900
@<TRIPOS>BOND
     1     1     6 1   
     2     1    20 1   
     3     1    73 1   
     4     1   151 1   
     5     2     3 ar  
     6     2     4 ar  
     7     2    74 1   
     8     3    58 ar  
     9     3    71 1   
    10     4     5 ar  
    11     4    75 1   
    12     5     9 1   
    13     5    57 ar  
    14     6    71 1   
    15     6    76 1   
    16     6    77 1   
    17     7     8 1   
    18     7    59 2   
    19     7    60 1   
    20     8     9 1   
    21     8    78 1   
    22     8    79 1   
    23     9    80 1   
    24     9    81 1   
    25    10    11 ar  
    26    10    48 ar  
    27    10    60 1   
    28    11    51 ar  
    29    11    59 1   
    30    12    14 1   
    31    12    62 1   
    32    12    82 1   
    33    12    83 1   
    34    13    18 1   
    35    13    62 1   
    36    13    84 1   
    37    13    85 1   
    38    14    61 1   
    39    14    86 1   
    40    14    87 1   
    41    15    16 2   
    42    15    19 1   
    43    15    63 1   
    44    17    61 1   
    45    17    88 1   
    46    17    89 1   
    47    17   173 1   
    48    18    61 1   
    49    18    92 1   
    50    18    93 1   
    51    19    62 1   
    52    19    94 1   
    53    19    95 1   
    54    20    96 1   
    55    20    97 1   
    56    20   158 1   
    57    21    22 1   
    58    21    63 1   
    59    21    98 1   
    60    21    99 1   
    61    22    23 1   
    62    22   100 1   
    63    22   101 1   
    64    23    24 1   
    65    23   102 1   
    66    23   103 1   
    67    24    25 1   
    68    24   104 1   
    69    24   105 1   
    70    25    26 1   
    71    25   106 1   
    72    25   107 1   
    73    26    27 1   
    74    26   108 1   
    75    26   109 1   
    76    27    28 1   
    77    27   110 1   
    78    27   111 1   
    79    28    29 1   
    80    28   112 1   
    81    28   113 1   
    82    29    64 1   
    83    29    67 2   
    84    30    31 1   
    85    30    44 1   
    86    30    64 1   
    87    30   114 1   
    88    31    65 1   
    89    31    68 2   
    90    32    33 1   
    91    32    36 1   
    92    32    65 1   
    93    32   115 1   
    94    33    34 1   
    95    33   116 1   
    96    33   117 1   
    97    34    35 1   
    98    34    69 1   
    99    34   118 1   
   100    35    65 1   
   101    35   119 1   
   102    35   120 1   
   103    36    70 2   
   104    36   174 1   
   105    37    38 1   
   106    37   121 1   
   107    37   122 1   
   108    37   174 1   
   109    38    39 ar  
   110    38    43 ar  
   111    39    40 ar  
   112    39   123 1   
   113    40    41 ar  
   114    40   124 1   
   115    41    42 ar  
   116    41   152 1   
   117    42    43 ar  
   118    42   125 1   
   119    43   126 1   
   120    44    45 1   
   121    44    46 1   
   122    44    47 1   
   123    45   127 1   
   124    45   128 1   
   125    45   129 1   
   126    46   130 1   
   127    46   131 1   
   128    46   132 1   
   129    47   133 1   
   130    47   134 1   
   131    47   135 1   
   132    48    49 ar  
   133    48   136 1   
   134    49    50 ar  
   135    49   137 1   
   136    50    51 ar  
   137    50    52 1   
   138    51   138 1   
   139    52    53 1   
   140    52    54 2   
   141    53    56 1   
   142    53    66 2   
   143    54    55 1   
   144    54    72 1   
   145    55   139 1   
   146    55   140 1   
   147    55   141 1   
   148    56   142 1   
   149    56   143 1   
   150    56   144 1   
   151    57    58 ar  
   152    57   145 1   
   153    58   146 1   
   154    60   173 1   
   155    63   147 1   
   156    64   148 1   
   157    66    72 1   
   158    69   150 1   
   159    90   173 1   
   160    91   173 1   
   161   149   174 1   
   162   152   153 2   
   163   152   156 1   
   164   153   154 1   
   165   153   172 1   
   166   154   155 2   
   167   154   161 1   
   168   155   156 1   
   169   156   157 1   
   170   156   162 1   
   171   157   163 1   
   172   157   164 1   
   173   157   165 1   
   174   158   159 1   
   175   158   160 1   
   176   159   166 1   
   177   159   167 1   
   178   159   168 1   
   179   160   169 1   
   180   160   170 1   
   181   160   171 1   
@<TRIPOS>SUBSTRUCTURE
     1 A1H         1 TEMP              0 ****  ****    0 ROOT
