@<TRIPOS>MOLECULE
A1H
  102   107     1     0     0
SMALL
abcg2


@<TRIPOS>ATOM
      1 C10         29.8070   -33.6740    42.3550 c3         1 A1H       0.207800
      2 C13         29.0130   -33.2920    38.7030 c6         1 A1H       0.151600
      3 C15         30.8300   -31.9010    39.2390 c6         1 A1H       0.151600
      4 C17         28.5160   -34.0620    44.4740 c6         1 A1H      -0.068900
      5 C20         22.8540   -34.8030    46.0900 c          1 A1H       0.591100
      6 C22         21.6800   -34.9630    43.9920 c5         1 A1H       0.030700
      7 C26         24.4140   -33.9740    40.3560 ca         1 A1H      -0.085300
      8 C28         25.1460   -32.3590    38.7140 ca         1 A1H      -0.096500
      9 C02         23.4370   -33.0410    47.9380 c3         1 A1H       0.111000
     10 C03         22.6320   -31.9530    47.2400 c3         1 A1H      -0.088600
     11 C05         25.3470   -32.2950    45.8800 c3         1 A1H       0.075600
     12 C06         26.7580   -32.4450    45.3170 c6         1 A1H      -0.043700
     13 C07         26.7910   -31.7640    43.9470 c6         1 A1H      -0.076400
     14 C08         28.1090   -31.9560    43.2080 c6         1 A1H      -0.068900
     15 C09         28.4800   -33.4300    43.0840 c6         1 A1H      -0.102700
     16 C12         28.9970   -33.9820    40.0640 c6         1 A1H       0.164300
     17 C16         30.1450   -31.9300    40.6040 c6         1 A1H       0.164300
     18 C18         27.1840   -33.9070    45.1970 c6         1 A1H      -0.076400
     19 C19         22.8990   -34.4530    47.5850 c3         1 A1H       0.049700
     20 C23         22.7820   -34.2910    43.1830 c          1 A1H       0.603100
     21 C25         24.6510   -34.6830    41.6640 c3         1 A1H       0.148300
     22 C27         25.2570   -32.9390    39.9680 ca         1 A1H      -0.100000
     23 C29         24.1820   -32.8040    37.8090 ca         1 A1H      -0.006000
     24 C30         24.0960   -32.2310    36.4650 cc         1 A1H      -0.184000
     25 C31         25.0980   -31.9570    35.5720 cd         1 A1H       0.300300
     26 C32         26.5550   -32.2050    35.7780 c3         1 A1H      -0.122400
     27 C34         23.3900   -31.3080    34.3430 cc         1 A1H       0.413300
     28 C36         23.3090   -33.8160    38.2160 ca         1 A1H      -0.096500
     29 C37         23.4250   -34.3910    39.4700 ca         1 A1H      -0.100000
     30 C39         20.2830   -34.5200    43.5570 c5         1 A1H      -0.080400
     31 C40         19.4640   -34.6600    44.8290 c5         1 A1H       0.153300
     32 C42         20.4300   -34.1240    45.8820 c5         1 A1H       0.070000
     33 C46         24.1890   -37.7100    48.9320 cx         1 A1H       0.040000
     34 C48         23.6920   -38.7500    49.8760 cx         1 A1H      -0.118900
     35 C49         24.1200   -39.1300    48.4900 cx         1 A1H      -0.118900
     36 F47         25.4390   -37.1940    49.1740 f          1 A1H      -0.229000
     37 N11         29.9100   -33.3070    40.9620 n3         1 A1H      -0.775600
     38 N21         21.7340   -34.5560    45.3910 n          1 A1H      -0.386800
     39 N24         23.4630   -35.1080    42.3650 ns         1 A1H      -0.487900
     40 N33         24.6750   -31.4340    34.3800 nd         1 A1H      -0.636000
     41 N44         23.6830   -35.4590    48.2520 ns         1 A1H      -0.467900
     42 O14         30.3130   -32.8830    38.3550 os         1 A1H      -0.443000
     43 O38         22.9920   -33.0910    43.2610 o          1 A1H      -0.601100
     44 O41         19.1820   -36.0280    45.0110 oh         1 A1H      -0.650000
     45 O43         23.8210   -35.3290    45.5560 o          1 A1H      -0.606100
     46 O50         22.0970   -37.0540    48.0560 o          1 A1H      -0.611100
     47 S04         25.2400   -32.8670    47.6030 ss         1 A1H      -0.462000
     48 S35         22.5760   -31.8120    35.7630 ss         1 A1H      -0.030400
     49 H101        30.0290   -34.7470    42.4260 h1         1 A1H       0.049200
     50 H102        30.6090   -33.1620    42.8990 h1         1 A1H       0.049200
     51 H132        28.3190   -32.4400    38.7030 h1         1 A1H       0.043450
     52 H131        28.6650   -33.9800    37.9310 h1         1 A1H       0.043450
     53 H152        31.8960   -32.1110    39.3550 h1         1 A1H       0.043450
     54 H151        30.7350   -30.8990    38.8020 h1         1 A1H       0.043450
     55 H171        28.7690   -35.1230    44.3970 hc         1 A1H       0.038700
     56 H172        29.3150   -33.5940    45.0620 hc         1 A1H       0.038700
     57 H221        21.7720   -36.0520    43.9220 h1         1 A1H       0.076700
     58 H281        25.8070   -31.5450    38.4450 ha         1 A1H       0.118000
     59 H012        23.9540   -33.5300    50.0170 hc         1 A1H       0.050533
     60 H011        23.5830   -31.8320    49.7270 hc         1 A1H       0.050533
     61 H013        22.2830   -33.0260    49.7700 hc         1 A1H       0.050533
     62 H031        21.5930   -31.9990    47.5710 hc         1 A1H       0.050533
     63 H032        23.0200   -30.9710    47.5090 hc         1 A1H       0.050533
     64 H033        22.6430   -32.0330    46.1540 hc         1 A1H       0.050533
     65 H052        25.0440   -31.2470    45.8450 h1         1 A1H       0.070200
     66 H051        24.6600   -32.8660    45.2600 h1         1 A1H       0.070200
     67 H061        27.4690   -31.9260    45.9740 hc         1 A1H       0.053700
     68 H072        26.5770   -30.6980    44.0610 hc         1 A1H       0.049450
     69 H071        25.9800   -32.1750    43.3350 hc         1 A1H       0.049450
     70 H082        28.9130   -31.4260    43.7330 hc         1 A1H       0.038700
     71 H081        28.0210   -31.4960    42.2220 hc         1 A1H       0.038700
     72 H091        27.6790   -33.9300    42.5220 hc         1 A1H       0.042700
     73 H121        27.9550   -33.9890    40.4160 h1         1 A1H       0.035200
     74 H122        29.2980   -35.0320    39.9670 h1         1 A1H       0.035200
     75 H161        30.8080   -31.4710    41.3400 h1         1 A1H       0.035200
     76 H162        29.2360   -31.3110    40.5850 h1         1 A1H       0.035200
     77 H181        26.4110   -34.4510    44.6420 hc         1 A1H       0.049450
     78 H182        27.2370   -34.3700    46.1850 hc         1 A1H       0.049450
     79 H191        21.8870   -34.4890    47.9940 h1         1 A1H       0.078700
     80 H252        25.2400   -35.5810    41.4690 h1         1 A1H       0.059200
     81 H251        25.2580   -34.0550    42.3180 h1         1 A1H       0.059200
     82 H271        26.0150   -32.5740    40.6530 ha         1 A1H       0.116000
     83 H322        27.0170   -32.5280    34.8460 hc         1 A1H       0.051700
     84 H321        27.0750   -31.3010    36.1030 hc         1 A1H       0.051700
     85 H323        26.7320   -32.9720    36.5310 hc         1 A1H       0.051700
     86 H341        22.8440   -30.9180    33.4950 h5         1 A1H       0.052100
     87 H361        22.5490   -34.1800    37.5360 ha         1 A1H       0.118000
     88 H371        22.7460   -35.1860    39.7520 ha         1 A1H       0.116000
     89 H391        20.2930   -33.4730    43.2480 hc         1 A1H       0.074700
     90 H392        19.8960   -35.1150    42.7300 hc         1 A1H       0.074700
     91 H401        18.5490   -34.0570    44.8010 h1         1 A1H       0.051700
     92 H421        20.3610   -33.0350    45.9290 h1         1 A1H       0.057700
     93 H422        20.2130   -34.5200    46.8740 h1         1 A1H       0.057700
     94 H481        22.6370   -38.7480    50.1160 hc         1 A1H       0.092200
     95 H482        24.3480   -39.0150    50.6950 hc         1 A1H       0.092200
     96 H491        23.3630   -39.3930    47.7640 hc         1 A1H       0.092200
     97 H492        25.0630   -39.6500    48.3820 hc         1 A1H       0.092200
     98 H241        23.2840   -36.0970    42.4180 hn         1 A1H       0.320500
     99 H441        24.6740   -35.2800    48.3420 hn         1 A1H       0.354500
    100 H411        18.7200   -36.1380    45.8490 ho         1 A1H       0.450000
    101 C45         23.2290   -36.7150    48.3670 c          1 A1H       0.619100
    102 C01         23.3140   -32.8520    49.4540 c3         1 A1H      -0.088600
@<TRIPOS>BOND
     1     1    15 1   
     2     1    37 1   
     3     1    49 1   
     4     1    50 1   
     5     2    16 1   
     6     2    42 1   
     7     2    51 1   
     8     2    52 1   
     9     3    17 1   
    10     3    42 1   
    11     3    53 1   
    12     3    54 1   
    13     4    15 1   
    14     4    18 1   
    15     4    55 1   
    16     4    56 1   
    17     5    19 1   
    18     5    38 1   
    19     5    45 2   
    20     6    20 1   
    21     6    30 1   
    22     6    38 1   
    23     6    57 1   
    24     7    21 1   
    25     7    22 ar  
    26     7    29 ar  
    27     8    22 ar  
    28     8    23 ar  
    29     8    58 1   
    30     9    10 1   
    31     9    19 1   
    32     9    47 1   
    33     9   102 1   
    34    10    62 1   
    35    10    63 1   
    36    10    64 1   
    37    11    12 1   
    38    11    47 1   
    39    11    65 1   
    40    11    66 1   
    41    12    13 1   
    42    12    18 1   
    43    12    67 1   
    44    13    14 1   
    45    13    68 1   
    46    13    69 1   
    47    14    15 1   
    48    14    70 1   
    49    14    71 1   
    50    15    72 1   
    51    16    37 1   
    52    16    73 1   
    53    16    74 1   
    54    17    37 1   
    55    17    75 1   
    56    17    76 1   
    57    18    77 1   
    58    18    78 1   
    59    19    41 1   
    60    19    79 1   
    61    20    39 1   
    62    20    43 2   
    63    21    39 1   
    64    21    80 1   
    65    21    81 1   
    66    22    82 1   
    67    23    24 1   
    68    23    28 ar  
    69    24    25 2   
    70    24    48 1   
    71    25    26 1   
    72    25    40 1   
    73    26    83 1   
    74    26    84 1   
    75    26    85 1   
    76    27    40 2   
    77    27    48 1   
    78    27    86 1   
    79    28    29 ar  
    80    28    87 1   
    81    29    88 1   
    82    30    31 1   
    83    30    89 1   
    84    30    90 1   
    85    31    32 1   
    86    31    44 1   
    87    31    91 1   
    88    32    38 1   
    89    32    92 1   
    90    32    93 1   
    91    33    34 1   
    92    33    35 1   
    93    33    36 1   
    94    33   101 1   
    95    34    35 1   
    96    34    94 1   
    97    34    95 1   
    98    35    96 1   
    99    35    97 1   
   100    39    98 1   
   101    41    99 1   
   102    41   101 1   
   103    44   100 1   
   104    46   101 2   
   105    59   102 1   
   106    60   102 1   
   107    61   102 1   
@<TRIPOS>SUBSTRUCTURE
     1 A1H         1 TEMP              0 ****  ****    0 ROOT
