@<TRIPOS>MOLECULE
A1I
   50    53     1     0     0
SMALL
abcg2


@<TRIPOS>ATOM
      1 N1         -17.4210   -19.6870     1.3390 nu         1 A1I      -0.827000
      2 C2         -17.3930   -21.8950     2.3780 ca         1 A1I      -0.109300
      3 C3         -18.1190   -22.9920     2.8330 ca         1 A1I      -0.085500
      4 C4         -19.5030   -23.0060     2.8240 ca         1 A1I      -0.125000
      5 C5         -20.1860   -21.8880     2.3690 ca         1 A1I      -0.085500
      6 C8         -18.0990   -20.7980     1.8590 ca         1 A1I       0.298000
      7 C9         -16.3630   -19.8150     0.4550 cc         1 A1I       0.032900
      8 C12        -18.2850   -21.6880    -1.1460 ca         1 A1I      -0.061000
      9 C13        -19.0660   -22.7480    -1.5740 ca         1 A1I      -0.145500
     10 C14        -18.4580   -23.9350    -1.9850 ca         1 A1I      -0.024000
     11 C15        -20.4630   -25.3670    -2.2190 c          1 A1I       0.603100
     12 C16        -20.8990   -26.6600    -2.8840 c3         1 A1I       0.026600
     13 C17        -17.0640   -24.0120    -1.9810 ca         1 A1I      -0.145500
     14 C18        -16.2980   -22.9470    -1.5490 ca         1 A1I      -0.061000
     15 C21        -12.8100   -17.7960     0.4560 cd         1 A1I      -0.104000
     16 C23        -14.9680   -18.0450     1.4940 cc         1 A1I      -0.100000
     17 C6         -19.5050   -20.7800     1.8810 ca         1 A1I      -0.109300
     18 C10        -16.0710   -20.6790    -0.5840 cd         1 A1I       0.115400
     19 C11        -16.8960   -21.7690    -1.0990 ca         1 A1I      -0.034800
     20 O1         -21.2440   -24.6930    -1.5790 o          1 A1I      -0.559100
     21 N3         -14.8140   -20.4620    -1.0560 nd         1 A1I      -0.285600
     22 C19        -14.3260   -19.4620    -0.3500 cc         1 A1I      -0.073000
     23 C20        -13.0830   -18.8020    -0.4250 cc         1 A1I      -0.076000
     24 C22        -13.7660   -17.4180     1.4350 cd         1 A1I      -0.150000
     25 N4         -15.2380   -19.0390     0.6010 na         1 A1I       0.123100
     26 H1         -17.9910   -18.8650     1.2020 hn         1 A1I       0.478000
     27 H2         -17.5770   -23.8450     3.2260 ha         1 A1I       0.111500
     28 H3         -20.0450   -23.8690     3.1870 ha         1 A1I       0.116000
     29 H4         -21.2690   -21.8760     2.3770 ha         1 A1I       0.111500
     30 H5         -20.0560   -19.3700     0.3290 hc         1 A1I       0.041700
     31 H6         -21.3440   -19.7650     1.4560 hc         1 A1I       0.041700
     32 H7         -20.0540   -18.6840     1.9470 hc         1 A1I       0.041700
     33 H8         -18.7810   -20.7690    -0.8650 ha         1 A1I       0.122000
     34 H9         -20.1370   -22.6320    -1.5940 ha         1 A1I       0.126000
     35 H10        -20.1280   -27.4290    -2.8720 h1         1 A1I       0.086700
     36 H11        -21.7970   -27.0360    -2.4040 h1         1 A1I       0.086700
     37 H13        -16.5740   -24.9220    -2.3100 ha         1 A1I       0.126000
     38 H14        -15.2200   -23.0400    -1.5410 ha         1 A1I       0.122000
     39 H15        -11.8610   -17.2800     0.4140 ha         1 A1I       0.124000
     40 H16        -15.7410   -17.8120     2.2110 h4         1 A1I       0.152000
     41 H17        -15.4980   -20.9450     2.8070 hc         1 A1I       0.041700
     42 H18        -15.5900   -22.6470     3.2410 hc         1 A1I       0.041700
     43 H19        -15.4030   -22.1800     1.5590 hc         1 A1I       0.041700
     44 H20        -18.6090   -25.7420    -2.9290 hn         1 A1I       0.155000
     45 H21        -12.3710   -19.1150    -1.1760 ha         1 A1I       0.142000
     46 H22        -13.5480   -16.6320     2.1430 ha         1 A1I       0.130000
     47 CL1        -21.2920   -26.3090    -4.5990 cl         1 A1I      -0.244000
     48 C1         -15.8960   -21.9130     2.4960 c3         1 A1I      -0.045300
     49 C7         -20.2730   -19.5910     1.3780 c3         1 A1I      -0.045300
     50 N2         -19.1630   -25.0570    -2.4350 ns         1 A1I      -0.139000
@<TRIPOS>BOND
     1     1     6 1   
     2     1     7 1   
     3     1    26 1   
     4     2     3 ar  
     5     2     6 ar  
     6     2    48 1   
     7     3     4 ar  
     8     3    27 1   
     9     4     5 ar  
    10     4    28 1   
    11     5    17 ar  
    12     5    29 1   
    13     6    17 ar  
    14     7    18 2   
    15     7    25 1   
    16     8     9 ar  
    17     8    19 ar  
    18     8    33 1   
    19     9    10 ar  
    20     9    34 1   
    21    10    13 ar  
    22    10    50 1   
    23    11    12 1   
    24    11    20 2   
    25    11    50 1   
    26    12    35 1   
    27    12    36 1   
    28    12    47 1   
    29    13    14 ar  
    30    13    37 1   
    31    14    19 ar  
    32    14    38 1   
    33    15    23 2   
    34    15    24 1   
    35    15    39 1   
    36    16    24 2   
    37    16    25 1   
    38    16    40 1   
    39    17    49 1   
    40    18    19 1   
    41    18    21 1   
    42    21    22 2   
    43    22    23 1   
    44    22    25 1   
    45    23    45 1   
    46    24    46 1   
    47    30    49 1   
    48    31    49 1   
    49    32    49 1   
    50    41    48 1   
    51    42    48 1   
    52    43    48 1   
    53    44    50 1   
@<TRIPOS>SUBSTRUCTURE
     1 A1I         1 TEMP              0 ****  ****    0 ROOT
