@<TRIPOS>MOLECULE
A1I
   38    38     1     0     0
SMALL
abcg2


@<TRIPOS>ATOM
      1 O7           1.7230   -10.0550    53.1990 o          1 A1I      -0.904167
      2 P            1.1150   -10.1180    54.6140 p5         1 A1I       1.302900
      3 O8           0.6520   -11.5030    55.0190 o          1 A1I      -0.904167
      4 O9           0.1260    -8.9900    54.8570 o          1 A1I      -0.904167
      5 O10          2.3970    -9.8550    55.6630 os         1 A1I      -0.585400
      6 CAQ          3.0600    -8.6050    55.6140 c3         1 A1I       0.216600
      7 CAR          4.5760    -8.7790    55.5910 c3         1 A1I       0.156300
      8 CAS          5.0910    -9.4390    56.8520 c3         1 A1I       0.161600
      9 OAU          6.5160    -9.3290    56.8850 oh         1 A1I      -0.747000
     10 O1           5.0090    -9.5910    54.4950 os         1 A1I      -0.453000
     11 C1           4.8400    -9.0490    53.2170 c6         1 A1I       0.343300
     12 O5           5.8470    -8.1000    52.8980 os         1 A1I      -0.503000
     13 C5           7.1740    -8.6340    52.8200 c6         1 A1I       0.144300
     14 C6           8.0580    -7.4410    52.5030 c3         1 A1I       0.150600
     15 O6           9.4030    -7.9020    52.3780 oh         1 A1I      -0.738000
     16 C4           7.2720    -9.7600    51.7800 c6         1 A1I       0.152300
     17 O4           7.0580    -9.2870    50.4500 oh         1 A1I      -0.702000
     18 C3           6.2260   -10.8120    52.1200 c6         1 A1I       0.163300
     19 O3           6.2670   -11.8730    51.1700 oh         1 A1I      -0.692000
     20 C2           4.8380   -10.1930    52.1940 c6         1 A1I       0.178300
     21 O2           3.9110   -11.2090    52.4990 oh         1 A1I      -0.832000
     22 H4A          2.7430    -8.0320    54.7400 h1         1 A1I       0.006200
     23 H4B          2.8020    -8.0070    56.4960 h1         1 A1I       0.006200
     24 H3A          5.0270    -7.7820    55.5120 h1         1 A1I       0.007700
     25 H2A          4.6480    -8.9350    57.7170 h1         1 A1I       0.040700
     26 H2B          4.7840   -10.4880    56.8630 h1         1 A1I       0.040700
     27 H1A          6.8430    -9.8640    57.6180 ho         1 A1I       0.471000
     28 H1           3.9060    -8.4940    53.1480 h2         1 A1I       0.117700
     29 H5           7.4610    -9.0500    53.7910 h1         1 A1I       0.067700
     30 H61          7.7140    -6.9760    51.5750 h1         1 A1I       0.030700
     31 H62          7.9640    -6.7090    53.3100 h1         1 A1I       0.030700
     32 HO6          9.9600    -7.1470    52.1530 ho         1 A1I       0.482000
     33 H4           8.2650   -10.2120    51.8560 h1         1 A1I       0.030700
     34 HO4          7.8750    -8.8780    50.1420 ho         1 A1I       0.472000
     35 H3           6.4750   -11.2030    53.1140 h1         1 A1I       0.051700
     36 HO3          5.4750   -12.4040    51.3300 ho         1 A1I       0.470000
     37 H2           4.6080    -9.7370    51.2230 h1         1 A1I       0.035700
     38 HO2          3.0340   -10.7810    52.7880 ho         1 A1I       0.633000
@<TRIPOS>BOND
     1     1     2 1   
     2     2     3 1   
     3     2     4 1   
     4     2     5 1   
     5     5     6 1   
     6     6     7 1   
     7     6    22 1   
     8     6    23 1   
     9     7     8 1   
    10     7    10 1   
    11     7    24 1   
    12     8     9 1   
    13     8    25 1   
    14     8    26 1   
    15     9    27 1   
    16    10    11 1   
    17    11    12 1   
    18    11    20 1   
    19    11    28 1   
    20    12    13 1   
    21    13    14 1   
    22    13    16 1   
    23    13    29 1   
    24    14    15 1   
    25    14    30 1   
    26    14    31 1   
    27    15    32 1   
    28    16    17 1   
    29    16    18 1   
    30    16    33 1   
    31    17    34 1   
    32    18    19 1   
    33    18    20 1   
    34    18    35 1   
    35    19    36 1   
    36    20    21 1   
    37    20    37 1   
    38    21    38 1   
@<TRIPOS>SUBSTRUCTURE
     1 A1I         1 TEMP              0 ****  ****    0 ROOT
