@<TRIPOS>MOLECULE
A1I
   53    56     1     0     0
SMALL
abcg2


@<TRIPOS>ATOM
      1 C1         -42.3640    -9.4480   -15.9600 c3         1 A1I      -0.158400
      2 C2         -42.0880   -10.7010   -16.7270 ca         1 A1I       0.155300
      3 C4         -42.7440   -12.7760   -17.3490 ca         1 A1I       0.150900
      4 C6         -40.7540   -12.0660   -18.1600 ca         1 A1I       0.155300
      5 C7         -39.5420   -12.3320   -18.9940 c3         1 A1I      -0.158400
      6 C8         -40.9240   -10.8580   -17.4820 cp         1 A1I      -0.195000
      7 C11        -39.1290    -7.6750   -18.3850 ca         1 A1I      -0.122000
      8 C12        -37.9730    -7.8800   -17.6480 ca         1 A1I       0.274300
      9 C15        -36.4590    -6.4700   -15.2630 cc         1 A1I      -0.238000
     10 C16        -35.4090    -6.8270   -14.4590 cd         1 A1I       0.377900
     11 C18        -35.9840    -6.0900   -12.2630 c          1 A1I       0.672100
     12 C21        -36.1600    -5.5280    -9.8770 ca         1 A1I      -0.058000
     13 C23        -36.3520    -5.5470    -7.4750 ca         1 A1I      -0.082000
     14 C24        -37.3250    -4.5640    -7.5320 ca         1 A1I      -0.055000
     15 C34        -38.7160    -9.8780   -16.8580 ca         1 A1I       0.362900
     16 N3         -42.9970   -11.6730   -16.6680 nb         1 A1I      -0.173500
     17 N5         -41.6760   -13.0240   -18.0860 nb         1 A1I      -0.173500
     18 C9         -39.9100    -9.7870   -17.5650 cp         1 A1I      -0.022000
     19 C10        -40.1080    -8.6530   -18.3450 ca         1 A1I      -0.050000
     20 N14        -36.0760    -6.9210   -16.4770 na         1 A1I       0.284800
     21 O19        -37.0550    -5.6730   -12.6430 o          1 A1I      -0.563100
     22 N20        -35.5010    -6.0400   -11.0040 ns         1 A1I      -0.124000
     23 C22        -35.7740    -6.0300    -8.6360 ca         1 A1I      -0.114000
     24 C25        -37.7030    -4.0620    -8.7710 ca         1 A1I      -0.170300
     25 C26        -37.1290    -4.5290    -9.9450 ca         1 A1I      -0.067000
     26 F28        -38.9350    -2.4860   -10.0290 f          1 A1I      -0.105667
     27 F29        -38.4460    -1.9750    -7.9960 f          1 A1I      -0.105667
     28 F30        -39.9430    -3.4610    -8.3960 f          1 A1I      -0.105667
     29 O31        -34.5200    -7.4490   -15.2360 os         1 A1I      -0.041700
     30 N32        -34.9490    -7.5050   -16.4860 n2         1 A1I      -0.106100
     31 N33        -37.7690    -8.9530   -16.9020 nb         1 A1I      -0.692000
     32 H1         -43.2170    -9.5890   -15.2990 hc         1 A1I       0.061367
     33 H2         -41.5020    -9.1440   -15.3670 hc         1 A1I       0.061367
     34 H3         -42.5920    -8.6230   -16.6370 hc         1 A1I       0.061367
     35 H4         -43.4910   -13.5620   -17.2960 h5         1 A1I       0.064100
     36 H7         -39.6420   -13.2820   -19.5140 hc         1 A1I       0.061367
     37 H5         -39.3880   -11.5430   -19.7310 hc         1 A1I       0.061367
     38 H6         -38.6420   -12.3710   -18.3790 hc         1 A1I       0.061367
     39 H9         -39.2610    -6.7770   -18.9730 ha         1 A1I       0.139000
     40 H12        -37.3870    -5.9570   -15.0920 h4         1 A1I       0.247000
     41 H15        -36.0420    -5.9460    -6.5190 ha         1 A1I       0.139000
     42 H16        -37.7730    -4.1980    -6.6170 ha         1 A1I       0.148000
     43 H18        -38.5220   -10.7380   -16.2260 h4         1 A1I       0.043100
     44 H8         -41.0230    -8.5320   -18.9120 ha         1 A1I       0.149000
     45 H11        -36.1750    -7.0660   -18.5300 h1         1 A1I       0.117200
     46 H10        -37.2360    -5.8490   -17.8090 h1         1 A1I       0.117200
     47 H19        -34.1990    -7.0530   -12.8630 hn         1 A1I       0.369500
     48 H13        -34.6310    -6.5140   -10.8060 hn         1 A1I       0.167000
     49 H14        -35.0170    -6.8030    -8.5790 ha         1 A1I       0.121000
     50 H17        -37.4200    -4.1150   -10.8970 ha         1 A1I       0.153000
     51 C13        -36.8590    -6.8650   -17.7060 c3         1 A1I       0.010300
     52 N17        -35.1000    -6.6970   -13.1620 ns         1 A1I      -0.469400
     53 C27        -38.7540    -2.9960    -8.8080 c3         1 A1I       0.358300
@<TRIPOS>BOND
     1     1     2 1   
     2     1    32 1   
     3     1    33 1   
     4     1    34 1   
     5     2     6 ar  
     6     2    16 ar  
     7     3    16 ar  
     8     3    17 ar  
     9     3    35 1   
    10     4     5 1   
    11     4     6 ar  
    12     4    17 ar  
    13     5    36 1   
    14     5    37 1   
    15     5    38 1   
    16     6    18 1   
    17     7     8 ar  
    18     7    19 ar  
    19     7    39 1   
    20     8    31 ar  
    21     8    51 1   
    22     9    10 2   
    23     9    20 1   
    24     9    40 1   
    25    10    29 1   
    26    10    52 1   
    27    11    21 2   
    28    11    22 1   
    29    11    52 1   
    30    12    22 1   
    31    12    23 ar  
    32    12    25 ar  
    33    13    14 ar  
    34    13    23 ar  
    35    13    41 1   
    36    14    24 ar  
    37    14    42 1   
    38    15    18 ar  
    39    15    31 ar  
    40    15    43 1   
    41    18    19 ar  
    42    19    44 1   
    43    20    30 2   
    44    20    51 1   
    45    22    48 1   
    46    23    49 1   
    47    24    25 ar  
    48    24    53 1   
    49    25    50 1   
    50    26    53 1   
    51    27    53 1   
    52    28    53 1   
    53    29    30 1   
    54    45    51 1   
    55    46    51 1   
    56    47    52 1   
@<TRIPOS>SUBSTRUCTURE
     1 A1I         1 TEMP              0 ****  ****    0 ROOT
