@<TRIPOS>MOLECULE
A1I
   60    64     1     0     0
SMALL
abcg2


@<TRIPOS>ATOM
      1 C1           5.8720   -33.1770     5.9000 ca         1 A1I       0.378000
      2 C2           4.9100   -33.0750     4.8790 ca         1 A1I      -0.209000
      3 C3           4.1510   -31.9290     4.7250 ca         1 A1I      -0.043000
      4 N6           2.5360   -36.7560    15.6750 na         1 A1I      -0.200700
      5 C8           5.8660   -33.7790     9.1050 c6         1 A1I       0.095500
      6 C9           5.2500   -33.2860    10.4090 c6         1 A1I      -0.121400
      7 C10          6.2760   -33.2940    11.5410 c6         1 A1I       0.228500
      8 C11          7.5150   -32.5040    11.1390 c6         1 A1I      -0.121400
      9 C12          8.0640   -33.0330     9.8190 c6         1 A1I       0.095500
     10 C13          4.9120   -33.5480    13.5320 cc         1 A1I       0.683400
     11 C14          3.8790   -35.1380    14.4060 cd         1 A1I       0.628800
     12 C16          3.3890   -36.4780    14.6460 cd         1 A1I      -0.095900
     13 C19          2.8120   -40.0470    14.3500 ca         1 A1I      -0.061000
     14 C20          2.0070   -40.7950    15.1780 ca         1 A1I      -0.110000
     15 C21          1.3190   -40.1850    16.2500 ca         1 A1I      -0.006000
     16 C22          1.4250   -38.8240    16.5110 ca         1 A1I      -0.082000
     17 C24          0.4930   -40.9890    17.0860 cg         1 A1I       0.328000
     18 N7          -0.1740   -41.6470    17.7590 n1         1 A1I      -0.463000
     19 C23          2.2410   -38.0860    15.6680 ca         1 A1I      -0.053200
     20 C18          2.9410   -38.6720    14.5840 ca         1 A1I      -0.088800
     21 C17          3.6630   -37.6280    13.9490 cc         1 A1I      -0.197200
     22 N3           4.7230   -34.8460    13.3910 nd         1 A1I      -0.748000
     23 N4           3.5330   -34.1180    15.1500 nc         1 A1I      -0.554800
     24 N5           4.1970   -33.0930    14.5790 na         1 A1I      -0.100700
     25 N2           5.7400   -32.7790    12.7890 nu         1 A1I      -0.907100
     26 N1           7.0520   -33.0020     8.7760 n          1 A1I      -0.416800
     27 O            7.9230   -31.1440     7.8250 o          1 A1I      -0.589100
     28 C6           6.0300   -32.0700     6.7650 ca         1 A1I      -0.242600
     29 N            6.6250   -34.3010     6.0350 nu         1 A1I      -0.988200
     30 C            6.4730   -35.4670     5.2080 c3         1 A1I       0.220100
     31 C5           5.2760   -30.9190     6.5680 ca         1 A1I      -0.021000
     32 C4           4.3220   -30.8370     5.5650 ca         1 A1I      -0.180000
     33 H5           4.7560   -33.9000     4.1960 ha         1 A1I       0.115000
     34 H6           3.4170   -31.8920     3.9300 ha         1 A1I       0.110000
     35 H            2.1830   -36.0780    16.3320 hn         1 A1I       0.366000
     36 H10          5.1360   -33.7120     8.3030 h1         1 A1I       0.063450
     37 H9           6.1520   -34.8310     9.2000 h1         1 A1I       0.063450
     38 H12          4.8680   -32.2700    10.2680 hc         1 A1I       0.058450
     39 H11          4.4000   -33.9220    10.6670 hc         1 A1I       0.058450
     40 H13          6.5800   -34.3280    11.7260 h1         1 A1I       0.088700
     41 H15          7.2700   -31.4420    11.0350 hc         1 A1I       0.058450
     42 H14          8.2820   -32.5900    11.9120 hc         1 A1I       0.058450
     43 H17          8.9310   -32.4610     9.5020 h1         1 A1I       0.063450
     44 H16          8.3840   -34.0710     9.9440 h1         1 A1I       0.063450
     45 H21          3.3440   -31.7190    15.8530 h1         1 A1I       0.057700
     46 H19          5.0780   -31.4760    15.5850 h1         1 A1I       0.057700
     47 H20          3.9060   -31.0380    14.3250 h1         1 A1I       0.057700
     48 H23          3.3360   -40.5190    13.5300 ha         1 A1I       0.121000
     49 H24          1.8940   -41.8580    15.0130 ha         1 A1I       0.123000
     50 H25          0.8940   -38.3670    17.3360 ha         1 A1I       0.126000
     51 H22          4.3060   -37.7080    13.0870 ha         1 A1I       0.220000
     52 H18          5.5780   -31.7820    12.8120 hn         1 A1I       0.477000
     53 H4           7.3010   -34.3460     6.7750 hn         1 A1I       0.501000
     54 H2           7.1740   -36.2240     5.5500 h1         1 A1I       0.035700
     55 H3           5.4670   -35.8900     5.2680 h1         1 A1I       0.035700
     56 H1           6.6890   -35.2620     4.1560 h1         1 A1I       0.035700
     57 H8           5.4310   -30.0760     7.2290 ha         1 A1I       0.118000
     58 H7           3.7320   -29.9390     5.4400 ha         1 A1I       0.118000
     59 C7           7.0760   -32.0260     7.8350 c          1 A1I       0.616700
     60 C15          4.1360   -31.7550    15.1130 c3         1 A1I       0.073900
@<TRIPOS>BOND
     1     1     2 ar  
     2     1    28 ar  
     3     1    29 1   
     4     2     3 ar  
     5     2    33 1   
     6     3    32 ar  
     7     3    34 1   
     8     4    12 1   
     9     4    19 1   
    10     4    35 1   
    11     5     6 1   
    12     5    26 1   
    13     5    36 1   
    14     5    37 1   
    15     6     7 1   
    16     6    38 1   
    17     6    39 1   
    18     7     8 1   
    19     7    25 1   
    20     7    40 1   
    21     8     9 1   
    22     8    41 1   
    23     8    42 1   
    24     9    26 1   
    25     9    43 1   
    26     9    44 1   
    27    10    22 2   
    28    10    24 1   
    29    10    25 1   
    30    11    12 1   
    31    11    22 1   
    32    11    23 2   
    33    12    21 2   
    34    13    14 ar  
    35    13    20 ar  
    36    13    48 1   
    37    14    15 ar  
    38    14    49 1   
    39    15    16 ar  
    40    15    17 1   
    41    16    19 ar  
    42    16    50 1   
    43    17    18 3   
    44    19    20 ar  
    45    20    21 1   
    46    21    51 1   
    47    23    24 1   
    48    24    60 1   
    49    25    52 1   
    50    26    59 1   
    51    27    59 2   
    52    28    31 ar  
    53    28    59 1   
    54    29    30 1   
    55    29    53 1   
    56    30    54 1   
    57    30    55 1   
    58    30    56 1   
    59    31    32 ar  
    60    31    57 1   
    61    32    58 1   
    62    45    60 1   
    63    46    60 1   
    64    47    60 1   
@<TRIPOS>SUBSTRUCTURE
     1 A1I         1 TEMP              0 ****  ****    0 ROOT
