@<TRIPOS>MOLECULE
A1I
   11    11     1     0     0
SMALL
abcg2


@<TRIPOS>ATOM
      1 C03        -20.5450   -51.2360   -16.5540 c3         1 A1I      -0.130400
      2 C04        -21.4360   -50.0580   -16.3650 cc         1 A1I       0.442700
      3 N05        -22.1870   -49.5420   -17.2840 nd         1 A1I      -0.645000
      4 C06        -22.8970   -48.4740   -16.8110 cd         1 A1I       0.276900
      5 C07        -22.6920   -48.1610   -15.5080 cc         1 A1I      -0.264000
      6 S08        -21.5550   -49.2530   -14.8350 ss         1 A1I      -0.058400
      7 H1         -20.5790   -51.5530   -17.5940 hc         1 A1I       0.058367
      8 H2         -19.5120   -51.0010   -16.2970 hc         1 A1I       0.058367
      9 H3         -20.8560   -52.0730   -15.9280 hc         1 A1I       0.058367
     10 H4         -23.5680   -47.9440   -17.4720 h4         1 A1I       0.041100
     11 H5         -23.1380   -47.3670   -14.9300 h4         1 A1I       0.161000
@<TRIPOS>BOND
     1     1     2 1   
     2     1     7 1   
     3     1     8 1   
     4     1     9 1   
     5     2     3 2   
     6     2     6 1   
     7     3     4 1   
     8     4     5 2   
     9     4    10 1   
    10     5     6 1   
    11     5    11 1   
@<TRIPOS>SUBSTRUCTURE
     1 A1I         1 TEMP              0 ****  ****    0 ROOT
