@<TRIPOS>MOLECULE
A1I
   40    43     1     0     0
SMALL
abcg2


@<TRIPOS>ATOM
      1 O01        -37.7810     3.5960     3.0570 o          1 A1I      -0.705500
      2 O02        -38.8000     5.1830     1.8400 o          1 A1I      -0.705500
      3 C03        -38.2220     4.7560     2.8730 c          1 A1I       0.622500
      4 N04        -37.5100     5.3860     5.2150 nc         1 A1I      -0.662000
      5 C05        -38.0390     5.7630     3.9990 cc         1 A1I       0.275500
      6 C06        -38.3610     7.0820     3.9100 cd         1 A1I      -0.266000
      7 S07        -37.9810     7.9130     5.3760 ss         1 A1I      -0.084400
      8 C08        -37.8520    15.0360     8.8360 ca         1 A1I      -0.058000
      9 C09        -37.8660    16.2250     9.5550 ca         1 A1I      -0.128000
     10 C10        -37.6330    16.2270    10.9360 ca         1 A1I      -0.109000
     11 C11        -37.3840    15.0470    11.6220 ca         1 A1I      -0.082000
     12 N12        -37.1290    12.5930    11.4550 nc         1 A1I      -0.650100
     13 C13        -37.3660    13.8420    10.9140 ca         1 A1I       0.137400
     14 C14        -37.6020    13.8540     9.5240 ca         1 A1I      -0.231000
     15 S15        -37.5190    12.2220     8.8970 ss         1 A1I       0.135800
     16 C16        -37.4190     6.3880     6.0460 cd         1 A1I       0.631300
     17 C17        -36.4690     4.8850     7.7170 c3         1 A1I       0.210100
     18 N18        -36.9270     6.2230     7.3310 nh         1 A1I      -0.736000
     19 C19        -37.1750    11.6710    10.5360 cd         1 A1I       0.624100
     20 N20        -36.9600    10.3620    10.8610 nu         1 A1I      -0.855100
     21 C21        -36.4110     7.7580    12.0090 c3         1 A1I      -0.051800
     22 C22        -36.9240     7.2280     8.2860 ca         1 A1I       0.544900
     23 N23        -37.1870     8.4590     7.8780 nb         1 A1I      -0.352000
     24 N24        -37.2000     9.4670     8.7450 nb         1 A1I      -0.342000
     25 C25        -36.9450     9.2620    10.0210 ca         1 A1I       0.489900
     26 C26        -36.6660     7.9730    10.5510 ca         1 A1I      -0.089300
     27 C27        -36.6590     6.9470     9.6470 ca         1 A1I      -0.134000
     28 H2         -38.7870     7.6030     3.0700 h4         1 A1I       0.164000
     29 H5         -37.6470    17.1650    11.4760 ha         1 A1I       0.106000
     30 H6         -37.2020    15.0470    12.6900 ha         1 A1I       0.122000
     31 H7         -35.5320     4.9650     8.2660 h1         1 A1I       0.053033
     32 H8         -37.2120     4.3780     8.3360 h1         1 A1I       0.053033
     33 H9         -36.3070     4.3080     6.8150 h1         1 A1I       0.053033
     34 H10        -36.7690    10.2110    11.8400 hn         1 A1I       0.510000
     35 H11        -35.5410     8.3310    12.3420 hc         1 A1I       0.049700
     36 H12        -37.2660     8.0840    12.6070 hc         1 A1I       0.049700
     37 H13        -36.2280     6.7050    12.2150 hc         1 A1I       0.049700
     38 H14        -36.4710     5.9410     9.9880 ha         1 A1I       0.133000
     39 H3         -38.0310    15.0310     7.7680 ha         1 A1I       0.121000
     40 H4         -38.0590    17.1580     9.0410 ha         1 A1I       0.108000
@<TRIPOS>BOND
     1     1     3 1   
     2     2     3 1   
     3     3     5 1   
     4     4     5 1   
     5     4    16 2   
     6     5     6 2   
     7     6     7 1   
     8     6    28 1   
     9     7    16 1   
    10     8     9 ar  
    11     8    14 ar  
    12     8    39 1   
    13     9    10 ar  
    14     9    40 1   
    15    10    11 ar  
    16    10    29 1   
    17    11    13 ar  
    18    11    30 1   
    19    12    13 1   
    20    12    19 2   
    21    13    14 ar  
    22    14    15 1   
    23    15    19 1   
    24    16    18 1   
    25    17    18 1   
    26    17    31 1   
    27    17    32 1   
    28    17    33 1   
    29    18    22 1   
    30    19    20 1   
    31    20    25 1   
    32    20    34 1   
    33    21    26 1   
    34    21    35 1   
    35    21    36 1   
    36    21    37 1   
    37    22    23 ar  
    38    22    27 ar  
    39    23    24 ar  
    40    24    25 ar  
    41    25    26 ar  
    42    26    27 ar  
    43    27    38 1   
@<TRIPOS>SUBSTRUCTURE
     1 A1I         1 TEMP              0 ****  ****    0 ROOT
