@<TRIPOS>MOLECULE
A1I
   15    15     1     0     0
SMALL
abcg2


@<TRIPOS>ATOM
      1 C01         -3.7640   -29.2770   -14.5670 ca         1 A1I       0.120400
      2 C02         -2.5950   -29.9800   -14.3380 ca         1 A1I      -0.008000
      3 C03         -2.3900   -30.4690   -13.0570 ca         1 A1I       0.120400
      4 N04         -3.2760   -30.2730   -12.0970 nb         1 A1I      -0.156500
      5 C05         -4.3790   -29.5950   -12.4020 ca         1 A1I       0.130300
      6 N06         -4.6520   -29.0950   -13.6030 nb         1 A1I      -0.156500
      7 C07         -5.3800   -29.3320   -11.3090 c3         1 A1I       0.114500
      8 N08         -5.6030   -30.4960   -10.4750 n8         1 A1I      -0.985200
      9 CL09        -1.4380   -30.2250   -15.5840 cl         1 A1I      -0.164000
     10 H1          -3.9870   -28.8610   -15.5430 h4         1 A1I       0.038600
     11 H2          -1.4910   -31.0250   -12.8130 h4         1 A1I       0.038600
     12 H3          -4.9770   -28.5320   -10.6810 h1         1 A1I       0.053200
     13 H4          -6.2820   -28.9230   -11.7770 h1         1 A1I       0.053200
     14 H5          -6.1180   -30.2240    -9.6490 hn         1 A1I       0.401000
     15 H6          -6.1840   -31.1630   -10.9670 hn         1 A1I       0.401000
@<TRIPOS>BOND
     1     1     2 ar  
     2     1     6 ar  
     3     1    10 1   
     4     2     3 ar  
     5     2     9 1   
     6     3     4 ar  
     7     3    11 1   
     8     4     5 ar  
     9     5     6 ar  
    10     5     7 1   
    11     7     8 1   
    12     7    12 1   
    13     7    13 1   
    14     8    14 1   
    15     8    15 1   
@<TRIPOS>SUBSTRUCTURE
     1 A1I         1 TEMP              0 ****  ****    0 ROOT
