@<TRIPOS>MOLECULE
A1I
   26    27     1     0     0
SMALL
abcg2


@<TRIPOS>ATOM
      1 C10          9.6470   -65.8120     1.1120 c6         1 A1I      -0.077900
      2 C01          7.5290   -68.9720     0.3110 c3         1 A1I      -0.087100
      3 C02          8.4090   -68.0210     1.1090 c6         1 A1I      -0.062700
      4 C03          7.8190   -67.7580     2.5060 c6         1 A1I      -0.069900
      5 C04          8.2440   -66.4060     3.0950 c6         1 A1I      -0.077900
      6 C05          9.6350   -66.0150     2.6300 cy         1 A1I       0.118400
      7 C06         10.3280   -64.9050     3.4590 cy         1 A1I      -0.189400
      8 C07         11.2810   -65.9980     3.9250 c          1 A1I       0.569000
      9 O08         12.2190   -66.0560     4.6900 o          1 A1I      -0.533000
     10 N09         10.6780   -66.9170     3.1500 ns         1 A1I      -0.530900
     11 C11          8.6250   -66.6960     0.3860 c6         1 A1I      -0.069900
     12 H1          10.6570   -66.0010     0.7400 hc         1 A1I       0.051200
     13 H2           9.4320   -64.7620     0.9030 hc         1 A1I       0.051200
     14 H3           7.3560   -69.9030     0.8540 hc         1 A1I       0.034700
     15 H4           6.5540   -68.5210     0.1110 hc         1 A1I       0.034700
     16 H5           7.9840   -69.2250    -0.6480 hc         1 A1I       0.034700
     17 H6           9.3890   -68.5000     1.2250 hc         1 A1I       0.043700
     18 H7           6.7270   -67.7870     2.4470 hc         1 A1I       0.042450
     19 H8           8.1050   -68.5690     3.1800 hc         1 A1I       0.042450
     20 H9           7.5520   -65.6210     2.7770 hc         1 A1I       0.051200
     21 H10          8.2020   -66.4310     4.1860 hc         1 A1I       0.051200
     22 H11         10.8050   -64.1190     2.8720 hc         1 A1I       0.080200
     23 H12          9.7200   -64.4550     4.2440 hc         1 A1I       0.080200
     24 H13         10.8420   -67.9080     3.0330 hn         1 A1I       0.329500
     25 H14          8.9500   -66.8690    -0.6430 hc         1 A1I       0.042450
     26 H15          7.6630   -66.1760     0.3170 hc         1 A1I       0.042450
@<TRIPOS>BOND
     1     1     6 1   
     2     1    11 1   
     3     1    12 1   
     4     1    13 1   
     5     2     3 1   
     6     2    14 1   
     7     2    15 1   
     8     2    16 1   
     9     3     4 1   
    10     3    11 1   
    11     3    17 1   
    12     4     5 1   
    13     4    18 1   
    14     4    19 1   
    15     5     6 1   
    16     5    20 1   
    17     5    21 1   
    18     6     7 1   
    19     6    10 1   
    20     7     8 1   
    21     7    22 1   
    22     7    23 1   
    23     8     9 2   
    24     8    10 1   
    25    10    24 1   
    26    11    25 1   
    27    11    26 1   
@<TRIPOS>SUBSTRUCTURE
     1 A1I         1 TEMP              0 ****  ****    0 ROOT
