@<TRIPOS>MOLECULE
A1I
   37    38     1     0     0
SMALL
abcg2


@<TRIPOS>ATOM
      1 N1         -44.9500    -4.7600    84.7790 n          1 A1I      -0.415800
      2 C4         -44.3630    -6.7630    81.9790 c5         1 A1I       0.142800
      3 C5         -44.5200    -7.1900    84.2330 c5         1 A1I       0.134800
      4 C6         -44.0440    -5.7200    84.1420 c5         1 A1I       0.073700
      5 C7         -45.1070    -4.8160    86.1250 c          1 A1I       0.608100
      6 C8         -46.2480    -4.0450    86.8200 c3         1 A1I      -0.112000
      7 C10        -47.5860    -4.5170    86.2350 c3         1 A1I      -0.081100
      8 N          -45.1110    -7.5480    82.9490 n7         1 A1I      -0.830400
      9 C          -44.2890    -2.5590    83.8500 c3         1 A1I      -0.116100
     10 O          -44.4060    -5.5810    86.7780 o          1 A1I      -0.605100
     11 C1         -45.3100    -3.6940    83.8430 c5         1 A1I       0.120700
     12 C11        -46.1270    -2.5190    86.7210 c3         1 A1I      -0.081100
     13 C2         -45.3050    -4.4380    82.5140 c5         1 A1I      -0.085400
     14 C3         -44.1200    -5.3990    82.6340 c5         1 A1I      -0.119700
     15 C9         -46.2340    -4.4060    88.3090 c3         1 A1I      -0.081100
     16 H7         -44.9000    -6.6920    81.0310 h1         1 A1I       0.057200
     17 H8         -43.4080    -7.2590    81.7770 h1         1 A1I       0.057200
     18 H10        -45.2250    -7.3720    85.0420 h1         1 A1I       0.068200
     19 H11        -43.6490    -7.8270    84.4130 h1         1 A1I       0.068200
     20 H12        -43.0310    -5.6140    84.5350 h1         1 A1I       0.072700
     21 H17        -48.4090    -4.0450    86.7750 hc         1 A1I       0.039478
     22 H16        -47.7060    -4.2690    85.1810 hc         1 A1I       0.039478
     23 H18        -47.6990    -5.5970    86.3380 hc         1 A1I       0.039478
     24 H9         -46.0790    -7.2480    82.9370 hn         1 A1I       0.400000
     25 H1         -44.1850    -2.1100    84.8360 hc         1 A1I       0.043033
     26 H          -43.3040    -2.9100    83.5410 hc         1 A1I       0.043033
     27 H2         -44.5970    -1.7760    83.1560 hc         1 A1I       0.043033
     28 H3         -46.3000    -3.2990    84.0610 h1         1 A1I       0.065700
     29 H20        -46.8660    -2.0640    87.3830 hc         1 A1I       0.039478
     30 H21        -45.1440    -2.1700    87.0420 hc         1 A1I       0.039478
     31 H19        -46.3180    -2.1280    85.7250 hc         1 A1I       0.039478
     32 H4         -46.2410    -4.9910    82.4020 hc         1 A1I       0.052200
     33 H5         -45.2170    -3.7630    81.6620 hc         1 A1I       0.052200
     34 H6         -43.2040    -4.9300    82.2730 hc         1 A1I       0.068700
     35 H14        -47.0580    -3.8920    88.8070 hc         1 A1I       0.039478
     36 H15        -46.3620    -5.4750    88.4750 hc         1 A1I       0.039478
     37 H13        -45.3090    -4.0960    88.7970 hc         1 A1I       0.039478
@<TRIPOS>BOND
     1     1     4 1   
     2     1     5 1   
     3     1    11 1   
     4     2     8 1   
     5     2    14 1   
     6     2    16 1   
     7     2    17 1   
     8     3     4 1   
     9     3     8 1   
    10     3    18 1   
    11     3    19 1   
    12     4    14 1   
    13     4    20 1   
    14     5     6 1   
    15     5    10 2   
    16     6     7 1   
    17     6    12 1   
    18     6    15 1   
    19     7    21 1   
    20     7    22 1   
    21     7    23 1   
    22     8    24 1   
    23     9    11 1   
    24     9    25 1   
    25     9    26 1   
    26     9    27 1   
    27    11    13 1   
    28    11    28 1   
    29    12    29 1   
    30    12    30 1   
    31    12    31 1   
    32    13    14 1   
    33    13    32 1   
    34    13    33 1   
    35    14    34 1   
    36    15    35 1   
    37    15    36 1   
    38    15    37 1   
@<TRIPOS>SUBSTRUCTURE
     1 A1I         1 TEMP              0 ****  ****    0 ROOT
