@<TRIPOS>MOLECULE
A1I
   19    20     1     0     0
SMALL
abcg2


@<TRIPOS>ATOM
      1 C13        -18.1700   -35.8590    -1.3110 ca         1 A1I      -0.061000
      2 O01        -20.1770   -35.1460     0.5050 o          1 A1I      -0.719500
      3 C02        -20.5770   -35.4160    -0.6440 c          1 A1I       0.715600
      4 O03        -21.7570   -35.4100    -1.0470 o          1 A1I      -0.719500
      5 C04        -19.5150   -35.7970    -1.6680 ca         1 A1I      -0.153600
      6 C05        -19.8750   -36.0930    -2.9880 ca         1 A1I      -0.035000
      7 C06        -18.9060   -36.4370    -3.9040 ca         1 A1I      -0.174300
      8 C07        -17.5680   -36.4910    -3.5160 ca         1 A1I      -0.072000
      9 N08        -16.7890   -36.8560    -4.6070 ns         1 A1I      -0.147000
     10 C09        -17.5330   -37.0590    -5.7320 c          1 A1I       0.560000
     11 O10        -17.1020   -37.3840    -6.8190 o          1 A1I      -0.578000
     12 C11        -18.9840   -36.8000    -5.3530 c5         1 A1I      -0.107100
     13 C12        -17.1760   -36.2070    -2.2220 ca         1 A1I      -0.170000
     14 H1         -17.8890   -35.6300    -0.2910 ha         1 A1I       0.131000
     15 H3         -20.9170   -36.0500    -3.2820 ha         1 A1I       0.133000
     16 H4         -15.7870   -36.9730    -4.5780 hn         1 A1I       0.153000
     17 H5         -19.3960   -36.0050    -5.9800 hc         1 A1I       0.074700
     18 H6         -19.5820   -37.6940    -5.5440 hc         1 A1I       0.074700
     19 H7         -16.1370   -36.2510    -1.9230 ha         1 A1I       0.095000
@<TRIPOS>BOND
     1     1     5 ar  
     2     1    13 ar  
     3     1    14 1   
     4     2     3 1   
     5     3     4 1   
     6     3     5 1   
     7     5     6 ar  
     8     6     7 ar  
     9     6    15 1   
    10     7     8 ar  
    11     7    12 1   
    12     8     9 1   
    13     8    13 ar  
    14     9    10 1   
    15     9    16 1   
    16    10    11 2   
    17    10    12 1   
    18    12    17 1   
    19    12    18 1   
    20    13    19 1   
@<TRIPOS>SUBSTRUCTURE
     1 A1I         1 TEMP              0 ****  ****    0 ROOT
