@<TRIPOS>MOLECULE
A1I
   54    57     1     0     0
SMALL
abcg2


@<TRIPOS>ATOM
      1 C10          4.0140    -3.2560   -44.3290 c5         1 A1I       0.166000
      2 C11          5.0590    -2.6230   -45.2290 c3         1 A1I       0.037600
      3 C12          6.5070    -2.6380   -47.6080 c3         1 A1I       0.101600
      4 C14          7.0770    -0.5600   -46.2430 c          1 A1I       0.684000
      5 C16          2.8640    -0.2700   -41.9880 c5         1 A1I       0.172600
      6 C17          3.5230     1.2840   -43.5550 c5         1 A1I       0.405200
      7 O1           2.2200    -1.9850   -45.2830 os         1 A1I      -0.428000
      8 O2           0.4250    -3.5800   -43.9060 oh         1 A1I      -0.706000
      9 C2           2.3170     1.3910   -44.4610 c2         1 A1I      -0.088400
     10 C3           1.6860     0.2600   -44.7680 c2         1 A1I      -0.217200
     11 O3           4.3620    -4.6010   -44.0680 oh         1 A1I      -0.725000
     12 O4           7.4320    -0.4440   -45.0390 o          1 A1I      -0.727000
     13 O5           6.3190     0.2030   -46.8620 o          1 A1I      -0.727000
     14 C4           2.0620    -1.0770   -44.2040 c6         1 A1I       0.205500
     15 C5           2.6020    -3.2910   -44.9150 c5         1 A1I       0.192300
     16 C6           1.7930    -3.8710   -43.7470 c5         1 A1I       0.127300
     17 C7           2.4860    -3.2870   -42.4870 c5         1 A1I      -0.112400
     18 C8           3.7340    -2.4990   -42.9870 c5         1 A1I      -0.038000
     19 C9           4.9020    -2.6320   -42.0110 c3         1 A1I      -0.080100
     20 S1           5.7160    -3.8010   -46.4490 ss         1 A1I      -0.493000
     21 C13          7.6390    -1.7670   -47.0420 c3         1 A1I       0.026500
     22 N1           8.6260    -2.5970   -46.3850 n8         1 A1I      -0.998200
     23 C15          3.2970    -1.0270   -43.2690 c5         1 A1I      -0.113000
     24 O6           3.0970     1.1080   -42.2090 os         1 A1I      -0.482000
     25 O7           4.2970     2.4130   -43.6430 oh         1 A1I      -0.635000
     26 C18          4.2900    -0.0090   -43.8650 c5         1 A1I       0.143300
     27 O8           5.5390     0.0570   -43.2410 oh         1 A1I      -0.781000
     28 H1           5.8910    -2.2550   -44.6350 h1         1 A1I       0.099700
     29 H2           4.6430    -1.7910   -45.7890 h1         1 A1I       0.099700
     30 H3           5.7450    -2.0070   -48.0640 h1         1 A1I       0.064700
     31 H4           6.9090    -3.2840   -48.3900 h1         1 A1I       0.064700
     32 H5           1.8040    -0.4390   -41.7640 h1         1 A1I       0.033700
     33 H6           3.4310    -0.5840   -41.1090 h1         1 A1I       0.033700
     34 H7           1.6530     3.4000   -44.0870 hc         1 A1I       0.040700
     35 H8           2.6170     3.2290   -45.5400 hc         1 A1I       0.040700
     36 H9           0.9500     2.6520   -45.5200 hc         1 A1I       0.040700
     37 H10         -0.0550    -4.0160   -43.1960 ho         1 A1I       0.489000
     38 H11          0.8020     0.2810   -45.3990 ha         1 A1I       0.180000
     39 H12          5.2210    -4.6250   -43.6330 ho         1 A1I       0.512000
     40 H14          1.2060    -1.4050   -43.6010 h1         1 A1I       0.048700
     41 H15          2.5310    -3.8980   -45.8220 h1         1 A1I       0.105700
     42 H16          1.9390    -4.9550   -43.7540 h1         1 A1I       0.048700
     43 H17          1.7990    -2.6660   -41.9090 hc         1 A1I       0.043200
     44 H18          2.7990    -4.0930   -41.8220 hc         1 A1I       0.043200
     45 H19          4.7330    -2.0740   -41.0920 hc         1 A1I       0.041367
     46 H20          5.0290    -3.6720   -41.7070 hc         1 A1I       0.041367
     47 H21          5.8430    -2.2830   -42.4290 hc         1 A1I       0.041367
     48 H22          8.1140    -1.3280   -47.9290 h1         1 A1I       0.054700
     49 H23          9.3230    -2.0040   -45.9520 hn         1 A1I       0.393000
     50 H24          8.1850    -3.0960   -45.6200 hn         1 A1I       0.393000
     51 H26          5.1790     2.1690   -43.3250 ho         1 A1I       0.480000
     52 H27          4.3970    -0.1060   -44.9460 h1         1 A1I       0.096700
     53 H28          6.2520    -0.0730   -43.9210 ho         1 A1I       0.593000
     54 C1           1.8600     2.7350   -44.9280 c3         1 A1I      -0.035900
@<TRIPOS>BOND
     1     1     2 1   
     2     1    11 1   
     3     1    15 1   
     4     1    18 1   
     5     2    20 1   
     6     2    28 1   
     7     2    29 1   
     8     3    20 1   
     9     3    21 1   
    10     3    30 1   
    11     3    31 1   
    12     4    12 1   
    13     4    13 1   
    14     4    21 1   
    15     5    23 1   
    16     5    24 1   
    17     5    32 1   
    18     5    33 1   
    19     6     9 1   
    20     6    24 1   
    21     6    25 1   
    22     6    26 1   
    23     7    14 1   
    24     7    15 1   
    25     8    16 1   
    26     8    37 1   
    27     9    10 2   
    28     9    54 1   
    29    10    14 1   
    30    10    38 1   
    31    11    39 1   
    32    14    23 1   
    33    14    40 1   
    34    15    16 1   
    35    15    41 1   
    36    16    17 1   
    37    16    42 1   
    38    17    18 1   
    39    17    43 1   
    40    17    44 1   
    41    18    19 1   
    42    18    23 1   
    43    19    45 1   
    44    19    46 1   
    45    19    47 1   
    46    21    22 1   
    47    21    48 1   
    48    22    49 1   
    49    22    50 1   
    50    23    26 1   
    51    25    51 1   
    52    26    27 1   
    53    26    52 1   
    54    27    53 1   
    55    34    54 1   
    56    35    54 1   
    57    36    54 1   
@<TRIPOS>SUBSTRUCTURE
     1 A1I         1 TEMP              0 ****  ****    0 ROOT
