@<TRIPOS>MOLECULE
A1I
   59    64     1     0     0
SMALL
abcg2


@<TRIPOS>ATOM
      1 C1           8.7090  -102.9080    84.9930 cc         1 A1I      -0.247000
      2 C2           8.7550  -102.0810    86.1370 cc         1 A1I       0.273300
      3 C5           7.3580  -103.1230    84.7890 cd         1 A1I       0.219000
      4 C7           5.3040  -104.1240    84.0780 c2         1 A1I       0.184800
      5 C8           4.6080  -103.4170    85.0030 ce         1 A1I      -0.312400
      6 C11          5.2260  -100.6050    83.8140 c5         1 A1I      -0.026100
      7 C12          4.2580   -99.5150    83.4340 ca         1 A1I      -0.090300
      8 C15          2.1930   -98.5150    84.2000 ca         1 A1I      -0.096000
      9 C16          2.2190   -97.6600    83.0990 ca         1 A1I      -0.111500
     10 C17          3.2570   -97.7350    82.1720 ca         1 A1I      -0.111500
     11 C18          4.2830   -98.6660    82.3360 ca         1 A1I      -0.096000
     12 C19          3.2060  -103.7150    85.3750 c          1 A1I       0.638300
     13 O20          2.8500  -103.7460    86.5520 o          1 A1I      -0.577100
     14 C23          0.2760  -104.5780    85.5080 ca         1 A1I      -0.130000
     15 C24         -1.0470  -104.9230    85.4330 ca         1 A1I      -0.055000
     16 C27          0.3480  -104.2800    83.0990 ca         1 A1I      -0.185000
     17 C31         -3.0900  -105.3090    84.0740 ca         1 A1I       0.370900
     18 C32          4.7810  -105.2380    83.2170 c3         1 A1I      -0.079900
     19 C33          9.9610  -101.5520    86.8330 c3         1 A1I       0.133300
     20 N3           7.5320  -101.8020    86.5920 nd         1 A1I      -0.500800
     21 N4           6.6900  -102.4610    85.7560 na         1 A1I       0.104800
     22 N6           6.6450  -103.8610    83.8750 nu         1 A1I      -0.816000
     23 C9           5.2430  -102.2900    85.7980 c6         1 A1I       0.185500
     24 C10          4.8800  -100.8790    85.2950 c5         1 A1I      -0.087700
     25 C13          3.2160   -99.4390    84.3630 ca         1 A1I      -0.090300
     26 C14          3.3940  -100.4770    85.4420 c5         1 A1I      -0.026100
     27 N21          2.3430  -103.8980    84.3260 ns         1 A1I      -0.152000
     28 C22          0.9900  -104.2490    84.3230 ca         1 A1I       0.008000
     29 C25         -1.7250  -104.9590    84.1940 ca         1 A1I      -0.125000
     30 C26         -1.0100  -104.6320    83.0080 ca         1 A1I       0.022000
     31 C28         -1.7280  -104.6850    81.7880 ca         1 A1I      -0.158000
     32 C29         -3.0500  -105.0390    81.8010 ca         1 A1I       0.329900
     33 N30         -3.7420  -105.3520    82.9320 nb         1 A1I      -0.670000
     34 O34         10.6400  -102.6380    87.4890 oh         1 A1I      -0.660000
     35 H1           9.5300  -103.3040    84.4200 ha         1 A1I       0.149000
     36 H2           5.0430  -101.4940    83.2010 hc         1 A1I       0.057200
     37 H3           6.2700  -100.3240    83.6720 hc         1 A1I       0.057200
     38 H4           1.3850   -98.4530    84.9210 ha         1 A1I       0.114000
     39 H5           1.4290   -96.9300    82.9650 ha         1 A1I       0.112500
     40 H6           3.2700   -97.0630    81.3230 ha         1 A1I       0.112500
     41 H7           5.0910   -98.7190    81.6150 ha         1 A1I       0.114000
     42 H9          -1.5900  -105.1730    86.3370 ha         1 A1I       0.121000
     43 H10          0.8940  -104.0330    82.1960 ha         1 A1I       0.114000
     44 H11         -3.6450  -105.5600    84.9740 h4         1 A1I       0.018100
     45 H12          3.9260  -105.7340    83.6660 hc         1 A1I       0.064033
     46 H13          4.4790  -104.8540    82.2380 hc         1 A1I       0.064033
     47 H14          5.5640  -105.9800    83.0530 hc         1 A1I       0.064033
     48 H15         10.6330  -101.0820    86.1090 h1         1 A1I       0.038200
     49 H16          9.6500  -100.7970    87.5610 h1         1 A1I       0.038200
     50 H17          7.1660  -104.4750    83.2690 hn         1 A1I       0.511000
     51 H18          4.9360  -102.3750    86.8420 h1         1 A1I       0.107700
     52 H19          5.4610  -100.1810    85.9030 hc         1 A1I       0.077700
     53 H20          3.1640  -100.1070    86.4430 hc         1 A1I       0.057200
     54 H21          2.7220  -101.3160    85.2510 hc         1 A1I       0.057200
     55 H22          2.7240  -103.6950    83.4140 hn         1 A1I       0.152000
     56 H23         -1.2320  -104.4460    80.8560 ha         1 A1I       0.121000
     57 H24         -3.6150  -105.0850    80.8770 h4         1 A1I       0.018100
     58 H25         11.4820  -102.3010    87.8190 ho         1 A1I       0.440000
     59 H8           0.7860  -104.5470    86.4550 ha         1 A1I       0.154000
@<TRIPOS>BOND
     1     1     2 1   
     2     1     3 2   
     3     1    35 1   
     4     2    19 1   
     5     2    20 2   
     6     3    21 1   
     7     3    22 1   
     8     4     5 2   
     9     4    18 1   
    10     4    22 1   
    11     5    12 1   
    12     5    23 1   
    13     6     7 1   
    14     6    24 1   
    15     6    36 1   
    16     6    37 1   
    17     7    11 ar  
    18     7    25 ar  
    19     8     9 ar  
    20     8    25 ar  
    21     8    38 1   
    22     9    10 ar  
    23     9    39 1   
    24    10    11 ar  
    25    10    40 1   
    26    11    41 1   
    27    12    13 2   
    28    12    27 1   
    29    14    15 ar  
    30    14    28 ar  
    31    14    59 1   
    32    15    29 ar  
    33    15    42 1   
    34    16    28 ar  
    35    16    30 ar  
    36    16    43 1   
    37    17    29 ar  
    38    17    33 ar  
    39    17    44 1   
    40    18    45 1   
    41    18    46 1   
    42    18    47 1   
    43    19    34 1   
    44    19    48 1   
    45    19    49 1   
    46    20    21 1   
    47    21    23 1   
    48    22    50 1   
    49    23    24 1   
    50    23    51 1   
    51    24    26 1   
    52    24    52 1   
    53    25    26 1   
    54    26    53 1   
    55    26    54 1   
    56    27    28 1   
    57    27    55 1   
    58    29    30 ar  
    59    30    31 ar  
    60    31    32 ar  
    61    31    56 1   
    62    32    33 ar  
    63    32    57 1   
    64    34    58 1   
@<TRIPOS>SUBSTRUCTURE
     1 A1I         1 TEMP              0 ****  ****    0 ROOT
