@<TRIPOS>MOLECULE
A1I
   49    48     1     0     0
SMALL
abcg2


@<TRIPOS>ATOM
      1 O22         19.2150   -27.0550    26.4420 o          1 A1I      -0.943500
      2 P02         20.6740   -26.6970    26.3790 p5         1 A1I       1.575800
      3 O32         21.2060   -25.6200    27.2820 o          1 A1I      -0.943500
      4 O12         21.1720   -26.5310    24.8600 os         1 A1I      -0.738800
      5 O13         21.4410   -28.1390    26.7270 os         1 A1I      -0.754300
      6 P03         22.9540   -28.4590    27.2370 p5         1 A1I       1.561300
      7 O33         23.1690   -29.9250    27.0070 o          1 A1I      -0.922500
      8 O23         23.9440   -27.4600    26.7210 o          1 A1I      -0.922500
      9 O14         22.7260   -28.1930    28.8540 os         1 A1I      -0.709800
     10 P04         23.4770   -29.0180    30.0620 p5         1 A1I       1.569300
     11 O34         24.9450   -29.1190    29.7800 o          1 A1I      -0.919500
     12 O24         22.6750   -30.2320    30.4090 o          1 A1I      -0.919500
     13 O15         23.3240   -27.8670    31.2260 os         1 A1I      -0.716800
     14 P05         22.1930   -27.6560    32.3960 p5         1 A1I       1.575800
     15 O35         22.6180   -26.4340    33.1490 o          1 A1I      -0.930500
     16 O25         20.8180   -27.7600    31.8140 o          1 A1I      -0.930500
     17 O16         22.3800   -28.9980    33.3240 os         1 A1I      -0.752300
     18 P06         23.5840   -29.4730    34.3360 p5         1 A1I       1.566800
     19 O36         23.3590   -30.9350    34.5590 o          1 A1I      -0.897250
     20 O26         24.9100   -28.9640    33.8710 o          1 A1I      -0.897250
     21 O17         23.0780   -28.6720    35.6840 os         1 A1I      -0.755800
     22 P07         23.9160   -28.0720    36.9610 p5         1 A1I       1.566800
     23 O37         22.9020   -27.8410    38.0370 o          1 A1I      -0.897250
     24 O27         24.8210   -26.9740    36.5060 o          1 A1I      -0.897250
     25 O18         24.7700   -29.4270    37.3500 os         1 A1I      -0.752300
     26 P08         26.2650   -29.6120    38.0060 p5         1 A1I       1.575800
     27 O38         27.3130   -29.3630    36.9660 o          1 A1I      -0.930500
     28 O28         26.2220   -30.9150    38.7420 o          1 A1I      -0.930500
     29 O19         26.2310   -28.3780    39.0970 os         1 A1I      -0.716800
     30 P09         27.5110   -27.4020    39.4910 p5         1 A1I       1.569300
     31 O39         27.7300   -26.3690    38.4310 o          1 A1I      -0.919500
     32 O29         28.6260   -28.2750    39.9750 o          1 A1I      -0.919500
     33 O40         26.8560   -26.7080    40.8230 os         1 A1I      -0.709800
     34 P10         25.9360   -25.3350    40.9270 p5         1 A1I       1.561300
     35 O60         24.6850   -25.5140    40.1210 o          1 A1I      -0.922500
     36 O50         26.7880   -24.1230    40.7090 o          1 A1I      -0.922500
     37 O41         25.4980   -25.4490    42.4950 os         1 A1I      -0.754300
     38 P11         26.2910   -25.8560    43.9060 p5         1 A1I       1.575800
     39 O61         26.3720   -27.3540    43.9790 o          1 A1I      -0.943500
     40 O51         25.5340   -25.1210    44.9790 o          1 A1I      -0.943500
     41 O42         27.7070   -25.1580    43.6450 os         1 A1I      -0.738800
     42 P12         29.2840   -25.5750    44.2480 p5         1 A1I       1.377400
     43 O62         29.7740   -26.6460    43.2820 o          1 A1I      -0.983333
     44 O52         29.9950   -24.2340    44.1260 o          1 A1I      -0.983333
     45 O43         29.0370   -26.0410    45.6780 o          1 A1I      -0.983333
     46 P01         21.0330   -25.0970    23.8770 p5         1 A1I       1.377400
     47 O21         22.2820   -24.2940    24.2110 o          1 A1I      -0.983333
     48 O11         21.0200   -25.7050    22.4810 o          1 A1I      -0.983333
     49 O31         19.7200   -24.4590    24.3160 o          1 A1I      -0.983333
@<TRIPOS>BOND
     1     1     2 1   
     2     2     3 1   
     3     2     4 1   
     4     2     5 1   
     5     4    46 1   
     6     5     6 1   
     7     6     7 1   
     8     6     8 1   
     9     6     9 1   
    10     9    10 1   
    11    10    11 1   
    12    10    12 1   
    13    10    13 1   
    14    13    14 1   
    15    14    15 1   
    16    14    16 1   
    17    14    17 1   
    18    17    18 1   
    19    18    19 1   
    20    18    20 1   
    21    18    21 1   
    22    21    22 1   
    23    22    23 1   
    24    22    24 1   
    25    22    25 1   
    26    25    26 1   
    27    26    27 1   
    28    26    28 1   
    29    26    29 1   
    30    29    30 1   
    31    30    31 1   
    32    30    32 1   
    33    30    33 1   
    34    33    34 1   
    35    34    35 1   
    36    34    36 1   
    37    34    37 1   
    38    37    38 1   
    39    38    39 1   
    40    38    40 1   
    41    38    41 1   
    42    41    42 1   
    43    42    43 1   
    44    42    44 1   
    45    42    45 1   
    46    46    47 1   
    47    46    48 1   
    48    46    49 1   
@<TRIPOS>SUBSTRUCTURE
     1 A1I         1 TEMP              0 ****  ****    0 ROOT
