@<TRIPOS>MOLECULE
A1I
   68    74     1     0     0
SMALL
abcg2


@<TRIPOS>ATOM
      1 C1         -41.5280    39.6570    27.0120 ca         1 A1I       0.358900
      2 N1         -40.8850    40.7050    26.5000 nb         1 A1I      -0.664000
      3 C2         -40.6750    40.7350    25.1820 ca         1 A1I       0.337900
      4 C3         -41.0920    39.7320    24.3030 ca         1 A1I      -0.096300
      5 C4         -41.7670    38.6480    24.8580 ca         1 A1I      -0.074000
      6 C5         -41.9940    38.5930    26.2320 ca         1 A1I      -0.149500
      7 C6         -42.6900    37.4640    26.8460 cc         1 A1I       0.248500
      8 N2         -43.1930    37.5040    28.1140 nc         1 A1I      -0.349000
      9 N3         -43.7520    36.3610    28.3930 nd         1 A1I      -0.197800
     10 N4         -43.6180    35.5680    27.3170 na         1 A1I       0.123800
     11 C7         -42.9640    36.2140    26.3290 cd         1 A1I      -0.171000
     12 C8         -44.1710    34.2050    27.3310 cy         1 A1I       0.001700
     13 C9         -43.8620    33.5150    26.0300 ca         1 A1I       0.260300
     14 N5         -44.7050    33.7470    25.0200 nb         1 A1I      -0.629000
     15 C10        -44.4770    33.1970    23.8350 ca         1 A1I       0.270900
     16 C11        -43.3680    32.3640    23.5480 ca         1 A1I       0.283000
     17 C12        -42.5010    32.1250    24.6300 ca         1 A1I      -0.151000
     18 C13        -42.7460    32.7070    25.8600 ca         1 A1I      -0.090000
     19 N6         -43.1400    31.8510    22.2870 nh         1 A1I      -0.776400
     20 C14        -44.2110    31.8600    21.2850 c6         1 A1I       0.193800
     21 C15        -45.1400    30.6620    21.4810 c6         1 A1I      -0.105400
     22 C16        -44.3420    29.3540    21.4500 c6         1 A1I      -0.110400
     23 C17        -43.1300    29.3850    22.3970 c6         1 A1I       0.137500
     24 C18        -42.3110    30.6540    22.1340 c6         1 A1I       0.200800
     25 N7         -42.2540    28.2190    22.3050 n7         1 A1I      -0.862400
     26 C19        -42.8390    26.9740    22.8050 c3         1 A1I       0.191800
     27 C20        -41.8580    25.8390    22.6910 cx         1 A1I      -0.129700
     28 C21        -42.3610    24.4270    22.5770 cx         1 A1I      -0.131400
     29 C22        -41.7340    25.1020    21.3830 cx         1 A1I      -0.131400
     30 C23        -40.8130    39.8630    22.8550 cx         1 A1I      -0.083400
     31 C24        -41.8050    39.3740    21.8220 cx         1 A1I      -0.121900
     32 C25        -40.5080    38.6500    22.0030 cx         1 A1I      -0.121900
     33 C26        -43.8750    33.4400    28.6410 cy         1 A1I       0.152100
     34 C27        -45.6430    34.1510    27.7990 cy         1 A1I       0.152100
     35 O1         -45.2750    33.4390    29.0070 oq         1 A1I      -0.445000
     36 H1         -41.6800    39.6500    28.0840 h4         1 A1I       0.040100
     37 H2         -40.1480    41.6010    24.7940 h4         1 A1I       0.017100
     38 H3         -42.1280    37.8470    24.2250 ha         1 A1I       0.113000
     39 H4         -42.7440    35.7610    25.3810 h4         1 A1I       0.171000
     40 H5         -45.2100    33.4190    23.0730 h4         1 A1I       0.025100
     41 H6         -41.6360    31.4900    24.5210 ha         1 A1I       0.131000
     42 H7         -42.0640    32.5230    26.6800 ha         1 A1I       0.128000
     43 H8         -43.7290    31.7970    20.3060 h1         1 A1I       0.060700
     44 H9         -44.7500    32.8030    21.3080 h1         1 A1I       0.060700
     45 H10        -45.6550    30.7620    22.4410 hc         1 A1I       0.054200
     46 H11        -45.9070    30.6590    20.7030 hc         1 A1I       0.054200
     47 H12        -44.9930    28.5130    21.6970 hc         1 A1I       0.045700
     48 H13        -43.9670    29.1830    20.4340 hc         1 A1I       0.045700
     49 H14        -43.4900    29.4310    23.4310 h1         1 A1I       0.065700
     50 H15        -41.9430    30.6410    21.1050 h1         1 A1I       0.066200
     51 H16        -41.4410    30.6890    22.7820 h1         1 A1I       0.066200
     52 H17        -41.9790    28.0840    21.3350 hn         1 A1I       0.409000
     53 H19        -43.1100    27.1340    23.8540 h1         1 A1I       0.034700
     54 H20        -43.7630    26.6940    22.2780 h1         1 A1I       0.034700
     55 H21        -40.9390    25.9800    23.2490 hc         1 A1I       0.089700
     56 H22        -43.4340    24.2770    22.5640 hc         1 A1I       0.071450
     57 H23        -41.8020    23.6450    23.0730 hc         1 A1I       0.071450
     58 H24        -40.7530    24.7750    21.0670 hc         1 A1I       0.071450
     59 H25        -42.3920    25.4070    20.5780 hc         1 A1I       0.071450
     60 H26        -40.2740    40.7650    22.5970 hc         1 A1I       0.083700
     61 H27        -41.9400    39.9810    20.9360 hc         1 A1I       0.073200
     62 H28        -42.7060    38.9010    22.1910 hc         1 A1I       0.073200
     63 H29        -40.5280    37.6860    22.4930 hc         1 A1I       0.073200
     64 H30        -39.7460    38.7590    21.2430 hc         1 A1I       0.073200
     65 H31        -43.4930    32.4280    28.5030 h1         1 A1I       0.075450
     66 H32        -43.2630    33.9860    29.3580 h1         1 A1I       0.075450
     67 H33        -46.0900    35.1210    28.0150 h1         1 A1I       0.075450
     68 H34        -46.2930    33.5600    27.1560 h1         1 A1I       0.075450
@<TRIPOS>BOND
     1     1     2 ar  
     2     1     6 ar  
     3     1    36 1   
     4     2     3 ar  
     5     3     4 ar  
     6     3    37 1   
     7     4     5 ar  
     8     4    30 1   
     9     5     6 ar  
    10     5    38 1   
    11     6     7 1   
    12     7     8 1   
    13     7    11 2   
    14     8     9 2   
    15     9    10 1   
    16    10    11 1   
    17    10    12 1   
    18    11    39 1   
    19    12    13 1   
    20    12    33 1   
    21    12    34 1   
    22    13    14 ar  
    23    13    18 ar  
    24    14    15 ar  
    25    15    16 ar  
    26    15    40 1   
    27    16    17 ar  
    28    16    19 1   
    29    17    18 ar  
    30    17    41 1   
    31    18    42 1   
    32    19    20 1   
    33    19    24 1   
    34    20    21 1   
    35    20    43 1   
    36    20    44 1   
    37    21    22 1   
    38    21    45 1   
    39    21    46 1   
    40    22    23 1   
    41    22    47 1   
    42    22    48 1   
    43    23    24 1   
    44    23    25 1   
    45    23    49 1   
    46    24    50 1   
    47    24    51 1   
    48    25    26 1   
    49    25    52 1   
    50    26    27 1   
    51    26    53 1   
    52    26    54 1   
    53    27    28 1   
    54    27    29 1   
    55    27    55 1   
    56    28    29 1   
    57    28    56 1   
    58    28    57 1   
    59    29    58 1   
    60    29    59 1   
    61    30    31 1   
    62    30    32 1   
    63    30    60 1   
    64    31    32 1   
    65    31    61 1   
    66    31    62 1   
    67    32    63 1   
    68    32    64 1   
    69    33    35 1   
    70    33    65 1   
    71    33    66 1   
    72    34    35 1   
    73    34    67 1   
    74    34    68 1   
@<TRIPOS>SUBSTRUCTURE
     1 A1I         1 TEMP              0 ****  ****    0 ROOT
