@<TRIPOS>MOLECULE
A1I
   73    76     1     0     0
SMALL
abcg2


@<TRIPOS>ATOM
      1 N1          11.9810    -0.4110    46.3150 ns         1 A1I      -0.500900
      2 N3          13.6400    -2.3020    47.4470 ns         1 A1I      -0.509900
      3 C4          15.0690    -0.4270    48.0760 c3         1 A1I      -0.041100
      4 C5          15.9780    -1.3460    48.8340 ca         1 A1I      -0.044300
      5 C6          16.8830    -2.1780    48.1870 ca         1 A1I      -0.158500
      6 C7          17.6810    -3.0270    48.9400 ca         1 A1I       0.332400
      7 C8          16.7600    -2.3080    50.8840 ca         1 A1I       0.332400
      8 C10         12.8970    -3.3080    47.9400 c          1 A1I       0.582100
      9 C13         14.8320    -5.6520    48.6970 c5         1 A1I      -0.081700
     10 C15         14.7450    -6.8650    50.9020 c6         1 A1I      -0.072900
     11 C17         16.4300    -8.6950    51.2740 c6         1 A1I      -0.074400
     12 C20         15.3800    -5.5430    47.2780 c5         1 A1I       0.098000
     13 C21         14.4600    -4.6740    45.2030 c          1 A1I       0.616100
     14 C22         13.3510    -3.9760    44.4470 c3         1 A1I      -0.148400
     15 C24         12.8760    -2.1510    42.8370 cc         1 A1I       0.081300
     16 C26         11.0630    -1.2590    41.8880 cd         1 A1I      -0.188000
     17 C1          11.0650     0.4440    45.5960 c3         1 A1I       0.091300
     18 C2          12.7180     0.0300    47.3390 c          1 A1I       0.585100
     19 O1          12.6880     1.1860    47.7340 o          1 A1I      -0.604100
     20 C3          13.6380    -0.9820    48.0270 c3         1 A1I       0.027700
     21 N2          17.6290    -3.1010    50.2640 nb         1 A1I      -0.667000
     22 C9          15.9240    -1.4240    50.2230 ca         1 A1I      -0.158500
     23 O2          12.0640    -3.1540    48.8190 o          1 A1I      -0.600100
     24 C11         13.1150    -4.6990    47.3350 c5         1 A1I       0.034700
     25 C12         13.3280    -5.7210    48.4510 c5         1 A1I      -0.080400
     26 C14         15.3820    -6.8230    49.5000 c6         1 A1I      -0.047700
     27 C16         15.6270    -7.5810    51.9320 c6         1 A1I      -0.071900
     28 C18         17.4150    -8.1150    50.2470 c6         1 A1I      -0.071900
     29 C19         16.9030    -6.8060    49.6280 c6         1 A1I      -0.072900
     30 N4          14.3260    -4.8500    46.5360 n          1 A1I      -0.419800
     31 O3          15.4680    -5.0460    44.6180 o          1 A1I      -0.596100
     32 C23         13.9460    -2.8290    43.6290 c3         1 A1I       0.147200
     33 N5          14.6780    -1.9140    44.5110 n8         1 A1I      -1.021200
     34 C25         11.5200    -2.2070    42.8550 cd         1 A1I      -0.175000
     35 C27         12.1760    -0.7010    41.3600 cc         1 A1I       0.133900
     36 O4          13.2780    -1.2360    41.9270 os         1 A1I      -0.241000
     37 H4          11.9970    -1.3890    46.0790 hn         1 A1I       0.319500
     38 H12         14.2890    -2.4780    46.6870 hn         1 A1I       0.352500
     39 H6          15.4440    -0.2810    47.0590 hc         1 A1I       0.072200
     40 H7          15.0410     0.5510    48.5550 hc         1 A1I       0.072200
     41 H8          16.9700    -2.1690    47.1070 ha         1 A1I       0.127500
     42 H9          18.3920    -3.6810    48.4450 h4         1 A1I       0.019600
     43 H10         16.7290    -2.3770    51.9660 h4         1 A1I       0.019600
     44 H16         15.0650    -4.7240    49.2350 hc         1 A1I       0.065700
     45 H19         14.5480    -5.8440    51.2440 hc         1 A1I       0.042700
     46 H18         13.7720    -7.3580    50.8400 hc         1 A1I       0.042700
     47 H22         16.9670    -9.2810    52.0220 hc         1 A1I       0.037200
     48 H23         15.7400    -9.3890    50.7840 hc         1 A1I       0.037200
     49 H28         16.3170    -4.9890    47.2270 h1         1 A1I       0.059200
     50 H29         15.5540    -6.5350    46.8480 h1         1 A1I       0.059200
     51 H30         12.8790    -4.7050    43.7830 hc         1 A1I       0.065200
     52 H31         12.5670    -3.5940    45.0990 hc         1 A1I       0.065200
     53 H1          10.6600    -0.1180    44.7600 h1         1 A1I       0.042367
     54 H2          10.2400     0.7780    46.2270 h1         1 A1I       0.042367
     55 H3          11.5750     1.3230    45.2030 h1         1 A1I       0.042367
     56 H5          13.2670    -1.0700    49.0510 h1         1 A1I       0.103700
     57 H11         15.2420    -0.8010    50.7880 ha         1 A1I       0.127500
     58 H13         12.2210    -4.9400    46.7550 h1         1 A1I       0.076700
     59 H15         12.7220    -5.5110    49.3290 hc         1 A1I       0.070200
     60 H14         13.0590    -6.7160    48.0860 hc         1 A1I       0.070200
     61 H17         15.1040    -7.7400    48.9620 hc         1 A1I       0.045700
     62 H20         16.3180    -6.8680    52.3940 hc         1 A1I       0.039200
     63 H21         15.0110    -7.9720    52.7440 hc         1 A1I       0.039200
     64 H24         18.3820    -7.9340    50.7210 hc         1 A1I       0.039200
     65 H25         17.5940    -8.8500    49.4590 hc         1 A1I       0.039200
     66 H27         17.1980    -5.9510    50.2460 hc         1 A1I       0.042700
     67 H26         17.3780    -6.6490    48.6570 hc         1 A1I       0.042700
     68 H32         14.6740    -3.2610    42.9380 h1         1 A1I       0.096700
     69 H38         15.4620    -1.5030    44.0230 hn         1 A1I       0.412500
     70 H33         14.0850    -1.1410    44.7910 hn         1 A1I       0.412500
     71 H35         10.9110    -2.8410    43.4780 ha         1 A1I       0.140000
     72 H37         12.3350     0.0520    40.6060 h4         1 A1I       0.057100
     73 H36         10.0430    -1.0290    41.6250 ha         1 A1I       0.147000
@<TRIPOS>BOND
     1     1    17 1   
     2     1    18 1   
     3     1    37 1   
     4     2     8 1   
     5     2    20 1   
     6     2    38 1   
     7     3     4 1   
     8     3    20 1   
     9     3    39 1   
    10     3    40 1   
    11     4     5 ar  
    12     4    22 ar  
    13     5     6 ar  
    14     5    41 1   
    15     6    21 ar  
    16     6    42 1   
    17     7    21 ar  
    18     7    22 ar  
    19     7    43 1   
    20     8    23 2   
    21     8    24 1   
    22     9    12 1   
    23     9    25 1   
    24     9    26 1   
    25     9    44 1   
    26    10    26 1   
    27    10    27 1   
    28    10    45 1   
    29    10    46 1   
    30    11    27 1   
    31    11    28 1   
    32    11    47 1   
    33    11    48 1   
    34    12    30 1   
    35    12    49 1   
    36    12    50 1   
    37    13    14 1   
    38    13    30 1   
    39    13    31 2   
    40    14    32 1   
    41    14    51 1   
    42    14    52 1   
    43    15    32 1   
    44    15    34 2   
    45    15    36 1   
    46    16    34 1   
    47    16    35 2   
    48    16    73 1   
    49    17    53 1   
    50    17    54 1   
    51    17    55 1   
    52    18    19 2   
    53    18    20 1   
    54    20    56 1   
    55    22    57 1   
    56    24    25 1   
    57    24    30 1   
    58    24    58 1   
    59    25    59 1   
    60    25    60 1   
    61    26    29 1   
    62    26    61 1   
    63    27    62 1   
    64    27    63 1   
    65    28    29 1   
    66    28    64 1   
    67    28    65 1   
    68    29    66 1   
    69    29    67 1   
    70    32    33 1   
    71    32    68 1   
    72    33    69 1   
    73    33    70 1   
    74    34    71 1   
    75    35    36 1   
    76    35    72 1   
@<TRIPOS>SUBSTRUCTURE
     1 A1I         1 TEMP              0 ****  ****    0 ROOT
