@<TRIPOS>MOLECULE
A1I
   72    75     1     0     0
SMALL
abcg2


@<TRIPOS>ATOM
      1 C1          22.7260   -33.3630   -19.1590 c3         1 A1I      -0.080400
      2 C2          21.5690   -33.3450   -18.1680 c3         1 A1I      -0.074400
      3 C3          20.3070   -32.7460   -18.7780 c3         1 A1I      -0.083400
      4 C4          19.1730   -32.5840   -17.7720 c3         1 A1I       0.115700
      5 C6          17.9940   -35.4510   -15.5980 ca         1 A1I      -0.168600
      6 C7          18.3240   -35.9710   -14.3480 ca         1 A1I      -0.046500
      7 C8          17.8730   -37.2200   -13.9580 ca         1 A1I      -0.165000
      8 C11         17.1740   -36.1910   -16.4460 ca         1 A1I      -0.046500
      9 C12         17.9450   -31.8800   -18.3900 c3         1 A1I       0.136000
     10 C15         14.1230   -33.0420   -15.4660 c3         1 A1I      -0.056400
     11 C16         12.8590   -32.2180   -15.4550 ca         1 A1I      -0.137300
     12 C17         12.7020   -31.1640   -14.5560 ca         1 A1I      -0.053500
     13 C18         11.5520   -30.4000   -14.5470 ca         1 A1I      -0.173500
     14 C19         10.5130   -30.6790   -15.4390 ca         1 A1I       0.156100
     15 C21          7.2680   -29.0750   -15.8350 c3         1 A1I      -0.037100
     16 C23          4.8120   -29.6470   -15.9030 ca         1 A1I      -0.095000
     17 C24          3.6270   -29.8550   -16.5900 ca         1 A1I      -0.094000
     18 C27          5.9350   -29.1760   -17.9610 ca         1 A1I      -0.097000
     19 N           25.0830   -33.9160   -19.5450 n8         1 A1I      -0.995200
     20 C           23.9980   -33.9550   -18.5740 c3         1 A1I       0.149800
     21 O           18.5820   -33.2210   -15.0760 o          1 A1I      -0.599100
     22 N1          18.7880   -33.8700   -17.2330 ns         1 A1I      -0.496900
     23 O1          18.3560   -30.6070   -18.7960 oh         1 A1I      -0.636000
     24 N2          16.6860   -30.7990   -16.5790 nc         1 A1I      -0.336300
     25 O2          15.6370   -31.1740   -15.7810 os         1 A1I      -0.080700
     26 N3          15.9450   -32.8180   -17.1690 nd         1 A1I      -0.736000
     27 O3           9.4300   -29.8860   -15.3460 os         1 A1I      -0.350100
     28 C9          17.0650   -37.9310   -14.8250 ca         1 A1I       0.190000
     29 C10         16.7020   -37.4380   -16.0630 ca         1 A1I      -0.165000
     30 C13         16.8410   -31.8080   -17.3750 cd         1 A1I       0.499300
     31 C14         15.2460   -32.3770   -16.1760 cc         1 A1I       0.498300
     32 C20          8.2940   -30.1540   -16.1480 c3         1 A1I       0.167600
     33 C22          5.9800   -29.3020   -16.5760 ca         1 A1I      -0.072300
     34 C25          3.5920   -29.7240   -17.9680 ca         1 A1I       0.119000
     35 C26          4.7540   -29.3870   -18.6550 ca         1 A1I       0.119000
     36 C28         10.6520   -31.7330   -16.3370 ca         1 A1I      -0.173500
     37 C29         11.8240   -32.4840   -16.3380 ca         1 A1I      -0.053500
     38 F           16.6160   -39.1350   -14.4480 f          1 A1I      -0.175000
     39 H1          22.9340   -32.3460   -19.5040 hc         1 A1I       0.046200
     40 H2          22.4340   -33.9370   -20.0460 hc         1 A1I       0.046200
     41 H3          21.3720   -34.3610   -17.8160 hc         1 A1I       0.044200
     42 H4          21.8560   -32.7650   -17.2840 hc         1 A1I       0.044200
     43 H5          20.5440   -31.7650   -19.1940 hc         1 A1I       0.053700
     44 H6          19.9660   -33.3640   -19.6160 hc         1 A1I       0.053700
     45 H7          19.5200   -31.9700   -16.9370 h1         1 A1I       0.103700
     46 H8          18.9450   -35.4000   -13.6720 ha         1 A1I       0.132000
     47 H9          18.1420   -37.6330   -12.9950 ha         1 A1I       0.135500
     48 H10         16.8620   -35.7920   -17.4030 ha         1 A1I       0.132000
     49 H11         17.5840   -32.4900   -19.2300 h1         1 A1I       0.052700
     50 H12         13.9590   -34.0030   -15.9530 hc         1 A1I       0.082700
     51 H13         14.4430   -33.2540   -14.4410 hc         1 A1I       0.082700
     52 H14         13.4830   -30.9420   -13.8380 ha         1 A1I       0.119000
     53 H15         11.4400   -29.5890   -13.8380 ha         1 A1I       0.125000
     54 H16          7.6800   -28.0990   -16.1050 hc         1 A1I       0.067700
     55 H17          7.0770   -29.0620   -14.7610 hc         1 A1I       0.067700
     56 H19          2.7270   -30.1250   -16.0540 ha         1 A1I       0.134000
     57 H20          6.8250   -28.8970   -18.5110 ha         1 A1I       0.132000
     58 H21         25.9260   -34.2850   -19.1240 hn         1 A1I       0.391000
     59 H22         24.8650   -34.5430   -20.3100 hn         1 A1I       0.391000
     60 H24         23.7810   -34.9660   -18.1980 h1         1 A1I       0.027200
     61 H25         24.2980   -33.3640   -17.7030 h1         1 A1I       0.027200
     62 H26         18.7110   -34.6360   -17.8840 hn         1 A1I       0.316500
     63 H27         17.6430   -30.1860   -19.2870 ho         1 A1I       0.457000
     64 H28         16.0510   -38.0080   -16.7130 ha         1 A1I       0.135500
     65 H29          7.8870   -31.1460   -15.9210 h1         1 A1I       0.040200
     66 H30          8.5540   -30.1370   -17.2120 h1         1 A1I       0.040200
     67 H31          9.8700   -31.9850   -17.0400 ha         1 A1I       0.125000
     68 H32         11.9190   -33.3000   -17.0460 ha         1 A1I       0.119000
     69 C5          18.4800   -34.0800   -15.9410 c          1 A1I       0.619700
     70 H18          4.8220   -29.7510   -14.8250 ha         1 A1I       0.123000
     71 CL           2.1110   -29.9790   -18.8120 cl         1 A1I      -0.170000
     72 CL1          4.7400   -29.2180   -20.3700 cl         1 A1I      -0.170000
@<TRIPOS>BOND
     1     1     2 1   
     2     1    20 1   
     3     1    39 1   
     4     1    40 1   
     5     2     3 1   
     6     2    41 1   
     7     2    42 1   
     8     3     4 1   
     9     3    43 1   
    10     3    44 1   
    11     4     9 1   
    12     4    22 1   
    13     4    45 1   
    14     5     6 ar  
    15     5     8 ar  
    16     5    69 1   
    17     6     7 ar  
    18     6    46 1   
    19     7    28 ar  
    20     7    47 1   
    21     8    29 ar  
    22     8    48 1   
    23     9    23 1   
    24     9    30 1   
    25     9    49 1   
    26    10    11 1   
    27    10    31 1   
    28    10    50 1   
    29    10    51 1   
    30    11    12 ar  
    31    11    37 ar  
    32    12    13 ar  
    33    12    52 1   
    34    13    14 ar  
    35    13    53 1   
    36    14    27 1   
    37    14    36 ar  
    38    15    32 1   
    39    15    33 1   
    40    15    54 1   
    41    15    55 1   
    42    16    17 ar  
    43    16    33 ar  
    44    16    70 1   
    45    17    34 ar  
    46    17    56 1   
    47    18    33 ar  
    48    18    35 ar  
    49    18    57 1   
    50    19    20 1   
    51    19    58 1   
    52    19    59 1   
    53    20    60 1   
    54    20    61 1   
    55    21    69 2   
    56    22    62 1   
    57    22    69 1   
    58    23    63 1   
    59    24    25 1   
    60    24    30 2   
    61    25    31 1   
    62    26    30 1   
    63    26    31 2   
    64    27    32 1   
    65    28    29 ar  
    66    28    38 1   
    67    29    64 1   
    68    32    65 1   
    69    32    66 1   
    70    34    35 ar  
    71    34    71 1   
    72    35    72 1   
    73    36    37 ar  
    74    36    67 1   
    75    37    68 1   
@<TRIPOS>SUBSTRUCTURE
     1 A1I         1 TEMP              0 ****  ****    0 ROOT
