@<TRIPOS>MOLECULE
A1I
   74    77     1     0     0
SMALL
abcg2


@<TRIPOS>ATOM
      1 C4         -10.3860    11.6860    14.3450 ca         1 A1I      -0.008300
      2 C14         -9.9350    15.9850    12.5570 c          1 A1I       0.582100
      3 C5         -11.6870    11.6810    14.8320 ca         1 A1I      -0.216500
      4 C6         -11.9340    11.9530    16.1770 ca         1 A1I       0.151600
      5 C11        -11.2740    15.3250    15.7490 c3         1 A1I       0.149600
      6 C7         -14.2820    11.7480    15.9030 c3         1 A1I       0.144400
      7 C8         -10.8740    12.2610    17.0340 ca         1 A1I       0.025100
      8 C9         -11.6470    13.8830    18.6010 c3         1 A1I       0.127600
      9 C10        -10.8460    15.0980    18.1050 c3         1 A1I       0.123600
     10 C12        -10.3020    16.1740    14.9300 c3         1 A1I       0.157300
     11 C13         -8.9460    16.3610    15.5770 c3         1 A1I      -0.111100
     12 N1         -10.3550    13.6710    11.7820 n          1 A1I      -0.393800
     13 C3          -9.3220    11.9310    15.2060 ca         1 A1I      -0.216500
     14 C1          -7.2560    12.5120    17.0030 c3         1 A1I       0.144400
     15 C2          -9.5620    12.2100    16.5480 ca         1 A1I       0.151600
     16 O2         -13.1590    11.9760    16.7300 os         1 A1I      -0.326600
     17 O3         -11.0860    12.5950    18.3340 os         1 A1I      -0.329100
     18 O4         -11.4510    15.8190    17.0510 os         1 A1I      -0.455000
     19 O5         -10.1600    15.4040    13.7200 os         1 A1I      -0.453100
     20 O6          -9.8120    17.1720    12.3950 o          1 A1I      -0.490000
     21 C15         -9.7810    14.9600    11.4330 c6         1 A1I       0.044700
     22 C16        -10.3260    15.4800    10.1050 c6         1 A1I      -0.075400
     23 C17        -11.8460    15.4810    10.0740 c6         1 A1I      -0.077400
     24 C18        -12.3620    14.0930    10.4200 c6         1 A1I      -0.094400
     25 C19        -11.8120    13.6210    11.7570 c6         1 A1I       0.105000
     26 C20         -9.5300    12.7240    12.3020 c          1 A1I       0.621100
     27 O7          -8.3210    12.8990    12.3620 o          1 A1I      -0.606100
     28 C21        -10.1340    11.4400    12.8700 c3         1 A1I      -0.085400
     29 C22         -9.2450    10.2180    12.5920 c6         1 A1I      -0.045700
     30 C23         -9.0990     9.9820    11.0870 c6         1 A1I      -0.073900
     31 C24         -8.2760     8.7350    10.7810 c6         1 A1I      -0.072400
     32 C25         -8.8660     7.5010    11.4530 c6         1 A1I      -0.076400
     33 C26         -9.0120     7.7240    12.9530 c6         1 A1I      -0.072400
     34 C27         -9.8340     8.9720    13.2550 c6         1 A1I      -0.073900
     35 H5         -12.5020    11.4690    14.1530 ha         1 A1I       0.128500
     36 H14        -12.2460    15.3140    15.2460 h1         1 A1I       0.053700
     37 H13        -10.9020    14.3010    15.7490 h1         1 A1I       0.053700
     38 H7         -15.1560    11.8210    16.5450 h1         1 A1I       0.043367
     39 H8         -14.3630    12.4950    15.1100 h1         1 A1I       0.043367
     40 H6         -14.2610    10.7530    15.4510 h1         1 A1I       0.043367
     41 H10        -11.6980    13.9180    19.6900 h1         1 A1I       0.061200
     42 H9         -12.6740    13.9520    18.2310 h1         1 A1I       0.061200
     43 H12         -9.8180    14.8070    17.8670 h1         1 A1I       0.058700
     44 H11        -10.7810    15.8100    18.9300 h1         1 A1I       0.058700
     45 H15        -10.7440    17.1460    14.6980 h1         1 A1I       0.071700
     46 H17         -9.0460    16.9220    16.5050 hc         1 A1I       0.048700
     47 H18         -8.4760    15.4020    15.8040 hc         1 A1I       0.048700
     48 H16         -8.2770    16.9260    14.9270 hc         1 A1I       0.048700
     49 H4          -8.3130    11.9240    14.8190 ha         1 A1I       0.128500
     50 H2          -6.6520    12.7560    17.8740 h1         1 A1I       0.043367
     51 H3          -6.9300    11.5470    16.6070 h1         1 A1I       0.043367
     52 H1          -7.0980    13.2780    16.2400 h1         1 A1I       0.043367
     53 H19         -8.7030    14.8240    11.3240 h1         1 A1I       0.111700
     54 H21         -9.9450    14.8300     9.3130 hc         1 A1I       0.063700
     55 H20         -9.9220    16.4740     9.9150 hc         1 A1I       0.063700
     56 H22        -12.2390    16.2090    10.7910 hc         1 A1I       0.050200
     57 H23        -12.2010    15.7890     9.0890 hc         1 A1I       0.050200
     58 H24        -13.4520    14.0840    10.4760 hc         1 A1I       0.049200
     59 H25        -12.0740    13.3830     9.6400 hc         1 A1I       0.049200
     60 H26        -12.2180    14.2410    12.5640 h1         1 A1I       0.046700
     61 H27        -12.1600    12.6110    11.9420 h1         1 A1I       0.046700
     62 H28        -11.0940    11.2180    12.4020 hc         1 A1I       0.061700
     63 H29         -8.2490    10.3890    13.0160 hc         1 A1I       0.070700
     64 H31         -8.6430    10.8480    10.6020 hc         1 A1I       0.041200
     65 H30        -10.0990     9.8680    10.6510 hc         1 A1I       0.041200
     66 H32         -8.2140     8.5880     9.7000 hc         1 A1I       0.040450
     67 H33         -7.2490     8.8830    11.1330 hc         1 A1I       0.040450
     68 H34         -9.8500     7.2890    11.0190 hc         1 A1I       0.038200
     69 H35         -8.2430     6.6250    11.2560 hc         1 A1I       0.038200
     70 H36         -9.4710     6.8530    13.4270 hc         1 A1I       0.040450
     71 H37         -8.0170     7.8330    13.3980 hc         1 A1I       0.040450
     72 H39         -9.9010     9.1150    14.3350 hc         1 A1I       0.041200
     73 H38        -10.8610     8.8260    12.8970 hc         1 A1I       0.041200
     74 O1          -8.5970    12.4770    17.4460 os         1 A1I      -0.326600
@<TRIPOS>BOND
     1     1     3 ar  
     2     1    13 ar  
     3     1    28 1   
     4     2    19 1   
     5     2    20 2   
     6     2    21 1   
     7     3     4 ar  
     8     3    35 1   
     9     4     7 ar  
    10     4    16 1   
    11     5    10 1   
    12     5    18 1   
    13     5    36 1   
    14     5    37 1   
    15     6    16 1   
    16     6    38 1   
    17     6    39 1   
    18     6    40 1   
    19     7    15 ar  
    20     7    17 1   
    21     8     9 1   
    22     8    17 1   
    23     8    41 1   
    24     8    42 1   
    25     9    18 1   
    26     9    43 1   
    27     9    44 1   
    28    10    11 1   
    29    10    19 1   
    30    10    45 1   
    31    11    46 1   
    32    11    47 1   
    33    11    48 1   
    34    12    21 1   
    35    12    25 1   
    36    12    26 1   
    37    13    15 ar  
    38    13    49 1   
    39    14    50 1   
    40    14    51 1   
    41    14    52 1   
    42    14    74 1   
    43    15    74 1   
    44    21    22 1   
    45    21    53 1   
    46    22    23 1   
    47    22    54 1   
    48    22    55 1   
    49    23    24 1   
    50    23    56 1   
    51    23    57 1   
    52    24    25 1   
    53    24    58 1   
    54    24    59 1   
    55    25    60 1   
    56    25    61 1   
    57    26    27 2   
    58    26    28 1   
    59    28    29 1   
    60    28    62 1   
    61    29    30 1   
    62    29    34 1   
    63    29    63 1   
    64    30    31 1   
    65    30    64 1   
    66    30    65 1   
    67    31    32 1   
    68    31    66 1   
    69    31    67 1   
    70    32    33 1   
    71    32    68 1   
    72    32    69 1   
    73    33    34 1   
    74    33    70 1   
    75    33    71 1   
    76    34    72 1   
    77    34    73 1   
@<TRIPOS>SUBSTRUCTURE
     1 A1I         1 TEMP              0 ****  ****    0 ROOT
