@<TRIPOS>MOLECULE
A1I
   45    45     1     0     0
SMALL
abcg2


@<TRIPOS>ATOM
      1 N            2.1020    -0.6650     1.9530 n8         1 A1I      -1.057200
      2 C42          1.9390     0.1180     0.7370 c3         1 A1I       0.179500
      3 C43          2.6580    -0.5830    -0.4160 c3         1 A1I      -0.053400
      4 C44          4.0950    -1.0180    -0.1210 c3         1 A1I      -0.054700
      5 C46          4.6730    -1.7220    -1.3450 c3         1 A1I      -0.083600
      6 C45          4.9810     0.1550     0.2860 c3         1 A1I      -0.083600
      7 C47          0.4300     0.4610     0.4770 c3         1 A1I       0.396000
      8 O48         -0.0400     1.1410     1.6050 oh         1 A1I      -0.667000
      9 OG1         -0.2090    -0.7750     0.2920 os         1 A1I      -0.527000
     10 CB          -1.5910    -0.9520     0.5920 c3         1 A1I       0.158300
     11 CG2         -1.8530    -2.4340     0.3690 c3         1 A1I      -0.073100
     12 CA          -2.5490    -0.0630    -0.2230 c3         1 A1I       0.014500
     13 C           -4.0080    -0.4370     0.1420 c          1 A1I       0.731000
     14 O           -4.3680    -0.1330     1.2990 o          1 A1I      -0.726000
     15 N2          -2.3860     1.3610     0.0150 n7         1 A1I      -0.842400
     16 C58         -1.2700     2.0680    -0.5750 c3         1 A1I       0.162800
     17 C51          0.1240     1.3870    -0.7310 c3         1 A1I       0.148000
     18 C59          0.1560     0.6690    -2.0840 c3         1 A1I      -0.109100
     19 O60          1.1230     2.3960    -0.7170 oh         1 A1I      -0.733000
     20 H            2.0260    -0.1210     2.8000 hn         1 A1I       0.411000
     21 H2           1.4530    -1.4400     1.9990 hn         1 A1I       0.411000
     22 H4           2.4380     1.0720     0.9160 h1         1 A1I       0.068700
     23 H5           2.0850    -1.4590    -0.7350 hc         1 A1I       0.047700
     24 H6           2.6960     0.0920    -1.2730 hc         1 A1I       0.047700
     25 H7           4.0780    -1.7310     0.7060 hc         1 A1I       0.059700
     26 H8           5.6860    -2.0830    -1.1550 hc         1 A1I       0.025033
     27 H9           4.0660    -2.5810    -1.6370 hc         1 A1I       0.025033
     28 H10          4.7200    -1.0460    -2.2030 hc         1 A1I       0.025033
     29 H11          4.9800     0.9330    -0.4820 hc         1 A1I       0.025033
     30 H12          4.6550     0.6120     1.2210 hc         1 A1I       0.025033
     31 H13          6.0150    -0.1660     0.4260 hc         1 A1I       0.025033
     32 H14          0.2250     0.6490     2.3910 ho         1 A1I       0.436000
     33 H15         -1.7650    -0.7290     1.6520 h1         1 A1I       0.041700
     34 H16         -1.1150    -3.0360     0.9010 hc         1 A1I       0.037033
     35 H17         -2.8340    -2.7190     0.7440 hc         1 A1I       0.037033
     36 H18         -1.8070    -2.6960    -0.6900 hc         1 A1I       0.037033
     37 H19         -2.4060    -0.2610    -1.2890 h1         1 A1I       0.051700
     38 H21         -2.3990     1.5140     1.0120 hn         1 A1I       0.432000
     39 H23         -1.5560     2.4040    -1.5810 h1         1 A1I       0.031700
     40 H24         -1.1330     2.9770     0.0120 h1         1 A1I       0.031700
     41 H25          1.1050     0.1890    -2.2990 hc         1 A1I       0.040367
     42 H26         -0.6220    -0.0820    -2.1890 hc         1 A1I       0.040367
     43 H27         -0.0180     1.4090    -2.8700 hc         1 A1I       0.040367
     44 H28          0.9680     2.9880    -1.4610 ho         1 A1I       0.494000
     45 OXT         -4.6900    -1.0050    -0.7320 o          1 A1I      -0.726000
@<TRIPOS>BOND
     1     1     2 1   
     2     1    20 1   
     3     1    21 1   
     4     2     3 1   
     5     2     7 1   
     6     2    22 1   
     7     3     4 1   
     8     3    23 1   
     9     3    24 1   
    10     4     5 1   
    11     4     6 1   
    12     4    25 1   
    13     5    26 1   
    14     5    27 1   
    15     5    28 1   
    16     6    29 1   
    17     6    30 1   
    18     6    31 1   
    19     7     8 1   
    20     7     9 1   
    21     7    17 1   
    22     8    32 1   
    23     9    10 1   
    24    10    11 1   
    25    10    12 1   
    26    10    33 1   
    27    11    34 1   
    28    11    35 1   
    29    11    36 1   
    30    12    13 1   
    31    12    15 1   
    32    12    37 1   
    33    13    14 1   
    34    13    45 1   
    35    15    16 1   
    36    15    38 1   
    37    16    17 1   
    38    16    39 1   
    39    16    40 1   
    40    17    18 1   
    41    17    19 1   
    42    18    41 1   
    43    18    42 1   
    44    18    43 1   
    45    19    44 1   
@<TRIPOS>SUBSTRUCTURE
     1 A1I         1 TEMP              0 ****  ****    0 ROOT
