@<TRIPOS>MOLECULE
A1I
   60    64     1     0     0
SMALL
abcg2


@<TRIPOS>ATOM
      1 C1         -11.2530    -7.4030   -49.4490 c          1 A1I       0.594100
      2 C2         -12.3640    -5.4630   -48.4350 c3         1 A1I       0.156300
      3 N3         -13.6130     1.1510   -54.1890 nc         1 A1I      -0.348300
      4 C4         -10.2990    -4.0020   -48.5250 ca         1 A1I      -0.096000
      5 C5          -9.5820    -2.9150   -49.0110 ca         1 A1I      -0.088000
      6 C6         -10.1720    -2.0950   -49.9640 ca         1 A1I      -0.097300
      7 C8         -12.1720    -3.4470   -49.9360 ca         1 A1I      -0.066000
      8 C11        -11.6210     1.1000   -53.1870 cc         1 A1I       0.127500
      9 C12        -11.6220     2.1920   -53.9920 cd         1 A1I      -0.168000
     10 C14        -13.4620     3.1520   -55.5590 ca         1 A1I      -0.147500
     11 C15        -12.6120     4.0370   -56.2280 ca         1 A1I      -0.077000
     12 C16        -13.1260     4.9540   -57.1370 ca         1 A1I      -0.116500
     13 C17        -14.4940     4.9980   -57.3860 ca         1 A1I      -0.093000
     14 C18        -15.3470     4.1200   -56.7210 ca         1 A1I      -0.116500
     15 C23         -8.6390    -8.2060   -51.0450 c3         1 A1I      -0.042700
     16 C24         -7.3530    -8.2390   -50.2610 c2         1 A1I      -0.216700
     17 C25         -7.2340    -8.0010   -48.9570 c2         1 A1I      -0.216700
     18 O1         -11.6440    -7.0660   -50.5690 o          1 A1I      -0.605100
     19 N1         -11.5810    -6.6860   -48.3550 ns         1 A1I      -0.513900
     20 C3         -11.5910    -4.2800   -48.9820 ca         1 A1I      -0.095300
     21 C7         -11.4570    -2.3590   -50.4150 ca         1 A1I      -0.103300
     22 C9         -11.8870    -1.3500   -51.4390 c5         1 A1I       0.162300
     23 N2         -10.7060    -0.4660   -51.5310 n          1 A1I      -0.403800
     24 C10        -10.5330     0.6250   -52.2900 c          1 A1I       0.528600
     25 O2          -9.4830     1.2780   -52.2760 o          1 A1I      -0.599100
     26 C13        -12.9090     2.1850   -54.6020 cd         1 A1I       0.333500
     27 C19        -14.8370     3.2040   -55.8130 ca         1 A1I      -0.077000
     28 O3         -12.8060     0.4610   -53.2920 os         1 A1I      -0.089700
     29 C20         -9.6070    -0.8850   -50.6420 c5         1 A1I       0.150300
     30 C21        -10.4440    -8.6880   -49.2280 c3         1 A1I      -0.131700
     31 C22         -9.7510    -9.1290   -50.5250 c3         1 A1I      -0.058900
     32 C26         -8.3690    -7.6560   -48.0270 c3         1 A1I      -0.042700
     33 C27         -9.5170    -8.6760   -48.0020 c3         1 A1I      -0.058900
     34 H1         -12.7130    -5.2460   -47.4250 h1         1 A1I       0.058700
     35 H2         -13.2410    -5.6380   -49.0580 h1         1 A1I       0.058700
     36 H3          -9.8480    -4.6500   -47.7840 ha         1 A1I       0.111000
     37 H4          -8.5800    -2.7160   -48.6510 ha         1 A1I       0.119000
     38 H5         -13.1690    -3.6590   -50.3040 ha         1 A1I       0.123000
     39 H6         -10.8270     2.9030   -54.1160 ha         1 A1I       0.169000
     40 H7         -11.5460     4.0050   -56.0470 ha         1 A1I       0.124000
     41 H8         -12.4570     5.6320   -57.6500 ha         1 A1I       0.117500
     42 H9         -14.8940     5.7140   -58.0930 ha         1 A1I       0.115000
     43 H10        -16.4130     4.1550   -56.9080 ha         1 A1I       0.117500
     44 H11         -8.4260    -8.4810   -52.0790 hc         1 A1I       0.048950
     45 H12         -9.0210    -7.1800   -51.0800 hc         1 A1I       0.048950
     46 H13         -6.4510    -8.4690   -50.8220 ha         1 A1I       0.168000
     47 H14         -6.2440    -8.0450   -48.5150 ha         1 A1I       0.168000
     48 H15        -11.2430    -6.9730   -47.4530 hn         1 A1I       0.315500
     49 H16        -12.7690    -0.7920   -51.1200 h1         1 A1I       0.072200
     50 H17        -12.1080    -1.8090   -52.4040 h1         1 A1I       0.072200
     51 H18        -15.5030     2.5310   -55.2910 ha         1 A1I       0.124000
     52 H19         -8.7080    -1.1030   -51.2250 h1         1 A1I       0.071700
     53 H20         -9.3570    -0.0810   -49.9450 h1         1 A1I       0.071700
     54 H21        -11.2150    -9.4410   -49.0200 hc         1 A1I       0.061700
     55 H22        -10.5130    -9.2170   -51.3000 hc         1 A1I       0.045450
     56 H23         -9.3410   -10.1290   -50.3640 hc         1 A1I       0.045450
     57 H24         -8.7660    -6.6700   -48.2900 hc         1 A1I       0.048950
     58 H25         -7.9760    -7.5590   -47.0140 hc         1 A1I       0.048950
     59 H26        -10.1100    -8.5170   -47.0970 hc         1 A1I       0.045450
     60 H27         -9.0960    -9.6790   -47.8980 hc         1 A1I       0.045450
@<TRIPOS>BOND
     1     1    18 2   
     2     1    19 1   
     3     1    30 1   
     4     2    19 1   
     5     2    20 1   
     6     2    34 1   
     7     2    35 1   
     8     3    26 2   
     9     3    28 1   
    10     4     5 ar  
    11     4    20 ar  
    12     4    36 1   
    13     5     6 ar  
    14     5    37 1   
    15     6    21 ar  
    16     6    29 1   
    17     7    20 ar  
    18     7    21 ar  
    19     7    38 1   
    20     8     9 2   
    21     8    24 1   
    22     8    28 1   
    23     9    26 1   
    24     9    39 1   
    25    10    11 ar  
    26    10    26 1   
    27    10    27 ar  
    28    11    12 ar  
    29    11    40 1   
    30    12    13 ar  
    31    12    41 1   
    32    13    14 ar  
    33    13    42 1   
    34    14    27 ar  
    35    14    43 1   
    36    15    16 1   
    37    15    31 1   
    38    15    44 1   
    39    15    45 1   
    40    16    17 2   
    41    16    46 1   
    42    17    32 1   
    43    17    47 1   
    44    19    48 1   
    45    21    22 1   
    46    22    23 1   
    47    22    49 1   
    48    22    50 1   
    49    23    24 1   
    50    23    29 1   
    51    24    25 2   
    52    27    51 1   
    53    29    52 1   
    54    29    53 1   
    55    30    31 1   
    56    30    33 1   
    57    30    54 1   
    58    31    55 1   
    59    31    56 1   
    60    32    33 1   
    61    32    57 1   
    62    32    58 1   
    63    33    59 1   
    64    33    60 1   
@<TRIPOS>SUBSTRUCTURE
     1 A1I         1 TEMP              0 ****  ****    0 ROOT
