@<TRIPOS>MOLECULE
A1I
   74    78     1     0     0
SMALL
abcg2


@<TRIPOS>ATOM
      1 C8          18.4660    19.2980     0.1040 ca         1 A1I      -0.113000
      2 C5          22.0750    18.9230     3.6200 ca         1 A1I      -0.114000
      3 C6          21.0590    18.0190     3.9930 ca         1 A1I      -0.098000
      4 N1          24.2870    23.8700     0.2810 n          1 A1I      -0.413800
      5 C2          19.7770    18.6400     2.0380 ca         1 A1I      -0.033000
      6 N3          16.9110    24.1630     3.1320 ns         1 A1I      -0.358100
      7 C4          19.9340    17.8800     3.2220 ca         1 A1I      -0.100000
      8 C24         16.7400    25.5740     5.0360 ca         1 A1I      -0.158000
      9 C25         16.0320    26.3800     5.9050 ca         1 A1I       0.016000
     10 C26         14.6620    26.5500     5.7150 ca         1 A1I      -0.302500
     11 S2          13.7600    27.5910     6.8200 sy         1 A1I       1.157600
     12 O4          14.5440    28.7660     7.1330 o          1 A1I      -0.554500
     13 O5          12.4360    27.7790     6.2660 o          1 A1I      -0.554500
     14 N4          13.7310    26.7010     8.2080 n8         1 A1I      -1.014100
     15 C28         14.0130    25.9280     4.6570 ca         1 A1I       0.016000
     16 C27         14.7240    25.1200     3.7800 ca         1 A1I      -0.158000
     17 C23         16.0930    24.9270     3.9720 ca         1 A1I       0.125600
     18 C22         16.6470    23.0950     2.3350 cs         1 A1I       0.490400
     19 S1          15.1400    22.3600     2.1240 s          1 A1I      -0.644400
     20 C17         19.0770    23.0470     1.8400 ca         1 A1I      -0.042400
     21 C19         19.8160    22.6630     2.9580 ca         1 A1I      -0.073000
     22 C21         21.1430    23.0350     3.0750 ca         1 A1I      -0.148500
     23 C18         19.6690    23.8230     0.8520 ca         1 A1I      -0.073000
     24 C20         21.0040    24.1950     0.9560 ca         1 A1I      -0.148500
     25 C16         21.7380    23.7820     2.0630 ca         1 A1I       0.173100
     26 O3          23.0790    24.0390     2.2160 os         1 A1I      -0.367200
     27 C14         23.8000    24.6950     1.2160 c          1 A1I       0.646100
     28 O2          23.9940    25.8920     1.3050 o          1 A1I      -0.466000
     29 C15         25.1680    24.4010    -0.7540 c3         1 A1I       0.091300
     30 C12         24.7700    21.5140     1.0260 c3         1 A1I      -0.088400
     31 C11         24.0270    20.2120     1.3080 c3         1 A1I       0.259600
     32 C29         24.8820    19.1720     1.9590 cc         1 A1I      -0.259300
     33 S3          24.7730    17.5160     1.4800 ss         1 A1I       0.213000
     34 C32         25.9020    17.0200     2.6740 cc         1 A1I      -0.231000
     35 C31         26.3400    18.0840     3.4140 cd         1 A1I      -0.139000
     36 C30         25.7560    19.3140     3.0050 cd         1 A1I      -0.104000
     37 O1          22.9180    20.6020     2.1700 os         1 A1I      -0.381100
     38 C3          21.9590    19.6640     2.4700 ca         1 A1I       0.103100
     39 C1          20.8100    19.5450     1.6390 ca         1 A1I      -0.051000
     40 C9          20.6310    20.3080     0.4620 ca         1 A1I      -0.097000
     41 C7          19.4890    20.1870    -0.2890 ca         1 A1I      -0.119000
     42 C10         18.6100    18.5440     1.2410 ca         1 A1I      -0.093000
     43 H1          17.5660    19.2170    -0.4930 ha         1 A1I       0.122000
     44 H2          22.9540    19.0470     4.2370 ha         1 A1I       0.129000
     45 H3          21.1740    17.4410     4.9010 ha         1 A1I       0.119000
     46 H4          17.5530    21.8000     1.1040 hn         1 A1I       0.365500
     47 H5          17.8940    24.3910     3.2160 hn         1 A1I       0.322500
     48 H6          19.1470    17.1950     3.5110 ha         1 A1I       0.119000
     49 H7          17.8050    25.4330     5.1750 ha         1 A1I       0.141500
     50 H8          16.5390    26.8700     6.7240 ha         1 A1I       0.139500
     51 H9          13.6170    27.3040     9.0180 hn         1 A1I       0.476000
     52 H10         13.0260    25.9700     8.1850 hn         1 A1I       0.476000
     53 H11         12.9540    26.0830     4.5060 ha         1 A1I       0.139500
     54 H12         14.2220    24.6470     2.9530 ha         1 A1I       0.141500
     55 H13         19.3540    22.0480     3.7190 ha         1 A1I       0.132500
     56 H14         21.7390    22.7130     3.9170 ha         1 A1I       0.140500
     57 H15         19.0890    24.1240    -0.0110 ha         1 A1I       0.132500
     58 H16         21.4630    24.7820     0.1720 ha         1 A1I       0.140500
     59 H17         25.5990    25.3390    -0.4180 h1         1 A1I       0.051033
     60 H18         25.9660    23.6820    -0.9410 h1         1 A1I       0.051033
     61 H19         24.6160    24.5680    -1.6810 h1         1 A1I       0.051033
     62 H20         22.8710    22.3560     0.4820 h1         1 A1I       0.058200
     63 H21         23.9650    22.1870    -0.8670 h1         1 A1I       0.058200
     64 H22         25.7090    21.2910     0.5180 hc         1 A1I       0.070200
     65 H23         25.0090    21.9840     1.9810 hc         1 A1I       0.070200
     66 H24         23.6110    19.8090     0.3800 h1         1 A1I       0.049700
     67 H25         26.1860    15.9830     2.7590 h4         1 A1I       0.154000
     68 H26         27.0570    17.9940     4.2180 ha         1 A1I       0.137000
     69 H27         25.9680    20.2650     3.4730 ha         1 A1I       0.139000
     70 H28         21.3960    21.0080     0.1660 ha         1 A1I       0.113000
     71 H29         19.3650    20.7880    -1.1810 ha         1 A1I       0.114000
     72 H30         17.8260    17.8630     1.5520 ha         1 A1I       0.121000
     73 C13         23.9070    22.4590     0.1860 c3         1 A1I       0.107000
     74 N2          17.7270    22.6040     1.6890 ns         1 A1I      -0.373100
@<TRIPOS>BOND
     1     1    41 ar  
     2     1    42 ar  
     3     1    43 1   
     4     2     3 ar  
     5     2    38 ar  
     6     2    44 1   
     7     3     7 ar  
     8     3    45 1   
     9     4    27 1   
    10     4    29 1   
    11     4    73 1   
    12     5     7 ar  
    13     5    39 ar  
    14     5    42 ar  
    15     6    17 1   
    16     6    18 1   
    17     6    47 1   
    18     7    48 1   
    19     8     9 ar  
    20     8    17 ar  
    21     8    49 1   
    22     9    10 ar  
    23     9    50 1   
    24    10    11 1   
    25    10    15 ar  
    26    11    12 2   
    27    11    13 2   
    28    11    14 1   
    29    14    51 1   
    30    14    52 1   
    31    15    16 ar  
    32    15    53 1   
    33    16    17 ar  
    34    16    54 1   
    35    18    19 2   
    36    18    74 1   
    37    20    21 ar  
    38    20    23 ar  
    39    20    74 1   
    40    21    22 ar  
    41    21    55 1   
    42    22    25 ar  
    43    22    56 1   
    44    23    24 ar  
    45    23    57 1   
    46    24    25 ar  
    47    24    58 1   
    48    25    26 1   
    49    26    27 1   
    50    27    28 2   
    51    29    59 1   
    52    29    60 1   
    53    29    61 1   
    54    30    31 1   
    55    30    64 1   
    56    30    65 1   
    57    30    73 1   
    58    31    32 1   
    59    31    37 1   
    60    31    66 1   
    61    32    33 1   
    62    32    36 2   
    63    33    34 1   
    64    34    35 2   
    65    34    67 1   
    66    35    36 1   
    67    35    68 1   
    68    36    69 1   
    69    37    38 1   
    70    38    39 ar  
    71    39    40 ar  
    72    40    41 ar  
    73    40    70 1   
    74    41    71 1   
    75    42    72 1   
    76    46    74 1   
    77    62    73 1   
    78    63    73 1   
@<TRIPOS>SUBSTRUCTURE
     1 A1I         1 TEMP              0 ****  ****    0 ROOT
