@<TRIPOS>MOLECULE
A1I
   63    66     1     0     0
SMALL
abcg2


@<TRIPOS>ATOM
      1 C10         35.3180    -4.3330     1.4430 ca         1 A1I      -0.065300
      2 C13         33.9000    -6.7230     1.1330 ca         1 A1I       0.115000
      3 C15         35.9540    -5.5590     1.5990 ca         1 A1I      -0.090000
      4 C20         45.0090     1.7560    -0.5560 c3         1 A1I      -0.177700
      5 C21         45.5280     3.1960    -0.4320 c3         1 A1I       0.253800
      6 C26         45.8340     3.0310    -5.3060 ca         1 A1I      -0.080000
      7 C28         44.8430     4.0190    -7.2460 ca         1 A1I      -0.078000
      8 C02         41.3970     1.3750     0.1610 c          1 A1I       0.705500
      9 C03         40.7260     0.0320     0.0610 c3         1 A1I      -0.155400
     10 C04         39.3090     0.0200     0.6080 c3         1 A1I      -0.147400
     11 C05         38.6980    -1.3650     0.5430 c          1 A1I       0.598100
     12 C08         36.6200    -2.6180     0.1830 c3         1 A1I       0.106000
     13 C09         36.0960    -3.0540     1.5550 c3         1 A1I      -0.059100
     14 C11         33.9610    -4.3230     1.1300 ca         1 A1I      -0.103000
     15 C12         33.2560    -5.5050     0.9770 ca         1 A1I      -0.097000
     16 C14         35.2540    -6.7460     1.4480 ca         1 A1I       0.120000
     17 C19         43.7060     1.6020     0.1430 c2         1 A1I       0.514200
     18 C23         44.4400     4.3560    -2.2980 ca         1 A1I       0.613900
     19 C25         45.0240     3.8190    -4.4720 ca         1 A1I       0.287000
     20 C27         45.7580     3.1150    -6.6800 ca         1 A1I      -0.114600
     21 C29         44.0390     4.8020    -6.4500 ca         1 A1I      -0.126000
     22 C30         44.1100     4.7200    -5.0510 ca         1 A1I      -0.110000
     23 C31         43.3020     5.5000    -4.1450 ca         1 A1I      -0.015000
     24 C32         43.4530     5.3300    -2.7610 ca         1 A1I      -0.084000
     25 C33         42.6540     6.1020    -1.9090 ca         1 A1I      -0.134000
     26 C34         41.7570     6.9920    -2.4520 ca         1 A1I       0.293900
     27 C36         42.3500     6.4430    -4.5760 ca         1 A1I       0.339900
     28 C37         46.6460     2.2460    -7.5690 c          1 A1I       0.713600
     29 N07         37.3910    -1.3990     0.2290 ns         1 A1I      -0.509900
     30 N18         42.6240     1.4290    -0.4870 ne         1 A1I      -0.660100
     31 N22         44.6290     4.1850    -0.9720 nu         1 A1I      -0.957100
     32 N24         45.1630     3.6620    -3.1220 nb         1 A1I      -0.745000
     33 N35         41.6050     7.1630    -3.7700 nb         1 A1I      -0.672000
     34 O01         40.9010     2.3460     0.6820 o          1 A1I      -0.560100
     35 O06         39.3490    -2.3740     0.7750 o          1 A1I      -0.606100
     36 O38         46.5020     2.3890    -8.7980 o          1 A1I      -0.713000
     37 O39         47.4320     1.4740    -6.9890 o          1 A1I      -0.713000
     38 CL16        36.0780    -8.2450     1.6600 cl         1 A1I      -0.174000
     39 CL17        33.0160    -8.1880     0.9340 cl         1 A1I      -0.178000
     40 H1          37.0080    -5.5940     1.8450 ha         1 A1I       0.141000
     41 H2          44.9060     1.4820    -1.6050 hc         1 A1I       0.084200
     42 H3          45.7460     1.0920    -0.0970 hc         1 A1I       0.084200
     43 H4          46.4940     3.2620    -0.9310 h1         1 A1I       0.051700
     44 H5          45.6890     3.4460     0.6170 h1         1 A1I       0.051700
     45 H8          40.7450    -0.2790    -0.9870 hc         1 A1I       0.086700
     46 H9          41.3550    -0.6920     0.5880 hc         1 A1I       0.086700
     47 H10         39.3090     0.3280     1.6570 hc         1 A1I       0.068200
     48 H11         38.6900     0.7430     0.0750 hc         1 A1I       0.068200
     49 H12         35.7830    -2.4550    -0.4970 h1         1 A1I       0.058700
     50 H13         37.2310    -3.4120    -0.2480 h1         1 A1I       0.058700
     51 H14         35.4650    -2.2650     1.9690 hc         1 A1I       0.059200
     52 H15         36.9370    -3.1870     2.2380 hc         1 A1I       0.059200
     53 H16         33.4430    -3.3800     1.0060 ha         1 A1I       0.119000
     54 H17         32.2020    -5.4840     0.7360 ha         1 A1I       0.130000
     55 H18         43.7300     1.6710     1.2360 h4         1 A1I      -0.041200
     56 H19         43.3460     5.4850    -6.9240 ha         1 A1I       0.090000
     57 H20         42.7110     6.0320    -0.8320 ha         1 A1I       0.106000
     58 H21         41.1310     7.5980    -1.8080 h4         1 A1I       0.005100
     59 H22         42.1980     6.6110    -5.6360 h4         1 A1I       0.021100
     60 H23         36.9040    -0.5300     0.0830 hn         1 A1I       0.315500
     61 H24         44.0120     4.6380    -0.3220 hn         1 A1I       0.486000
     62 H6          46.5280     2.3440    -4.8400 ha         1 A1I       0.143000
     63 H7          44.7700     4.0980    -8.3220 ha         1 A1I       0.133000
@<TRIPOS>BOND
     1     1     3 ar  
     2     1    13 1   
     3     1    14 ar  
     4     2    15 ar  
     5     2    16 ar  
     6     2    39 1   
     7     3    16 ar  
     8     3    40 1   
     9     4     5 1   
    10     4    17 1   
    11     4    41 1   
    12     4    42 1   
    13     5    31 1   
    14     5    43 1   
    15     5    44 1   
    16     6    19 ar  
    17     6    20 ar  
    18     6    62 1   
    19     7    20 ar  
    20     7    21 ar  
    21     7    63 1   
    22     8     9 1   
    23     8    30 1   
    24     8    34 2   
    25     9    10 1   
    26     9    45 1   
    27     9    46 1   
    28    10    11 1   
    29    10    47 1   
    30    10    48 1   
    31    11    29 1   
    32    11    35 2   
    33    12    13 1   
    34    12    29 1   
    35    12    49 1   
    36    12    50 1   
    37    13    51 1   
    38    13    52 1   
    39    14    15 ar  
    40    14    53 1   
    41    15    54 1   
    42    16    38 1   
    43    17    30 2   
    44    17    55 1   
    45    18    24 ar  
    46    18    31 1   
    47    18    32 ar  
    48    19    22 ar  
    49    19    32 ar  
    50    20    28 1   
    51    21    22 ar  
    52    21    56 1   
    53    22    23 ar  
    54    23    24 ar  
    55    23    27 ar  
    56    24    25 ar  
    57    25    26 ar  
    58    25    57 1   
    59    26    33 ar  
    60    26    58 1   
    61    27    33 ar  
    62    27    59 1   
    63    28    36 1   
    64    28    37 1   
    65    29    60 1   
    66    31    61 1   
@<TRIPOS>SUBSTRUCTURE
     1 A1I         1 TEMP              0 ****  ****    0 ROOT
