@<TRIPOS>MOLECULE
A1I
   68    71     1     0     0
SMALL
abcg2


@<TRIPOS>ATOM
      1 C4          39.6070    -0.1950     1.0770 c3         1 A1I      -0.150400
      2 C5          38.6130    -1.1390     1.7220 c          1 A1I       0.597100
      3 C8          36.2320    -1.7410     1.8350 c3         1 A1I       0.108000
      4 C10         34.9130    -3.8960     1.5740 ca         1 A1I      -0.057300
      5 C13         32.8470    -5.5540     2.4880 ca         1 A1I       0.114000
      6 C15         34.0820    -6.0930     2.1500 ca         1 A1I       0.122000
      7 C17         35.1030    -5.2670     1.7030 ca         1 A1I      -0.093000
      8 C20         45.1390     0.9250     0.2080 c3         1 A1I      -0.094400
      9 C21         46.0590     2.0200    -0.3390 c3         1 A1I      -0.105400
     10 C22         45.5440     3.4360    -0.0830 c3         1 A1I       0.234800
     11 C24         44.0110     3.9670    -1.9250 ca         1 A1I       0.601900
     12 C26         44.8470     4.2980    -4.0580 ca         1 A1I       0.285000
     13 C28         45.9040     4.5770    -6.2290 ca         1 A1I      -0.116600
     14 C11         33.6690    -3.3690     1.9200 ca         1 A1I      -0.104000
     15 C12         32.6480    -4.1860     2.3740 ca         1 A1I      -0.095000
     16 C19         44.0780     0.4720    -0.7960 c3         1 A1I       0.097000
     17 C2          42.0090     0.2380     0.4850 c          1 A1I       0.597100
     18 C27         45.9910     4.3600    -4.8710 ca         1 A1I      -0.081000
     19 C29         47.1640     4.6280    -7.0910 c          1 A1I       0.713600
     20 C3          41.0260    -0.7390     1.0950 c3         1 A1I      -0.148400
     21 C32         44.6330     4.7420    -6.8020 ca         1 A1I      -0.080000
     22 C33         43.4980     4.6910    -6.0280 ca         1 A1I      -0.126000
     23 C34         43.5780     4.4670    -4.6440 ca         1 A1I      -0.113000
     24 C35         42.4390     4.3940    -3.7620 ca         1 A1I      -0.017000
     25 C36         41.1110     4.5630    -4.1970 ca         1 A1I       0.333900
     26 C38         40.2680     4.2940    -2.1040 ca         1 A1I       0.285900
     27 C39         41.5170     4.1160    -1.5590 ca         1 A1I      -0.124000
     28 C40         42.6390     4.1540    -2.3950 ca         1 A1I      -0.091000
     29 C9          36.0210    -3.0300     1.0390 c3         1 A1I      -0.060100
     30 N18         43.0230    -0.3150    -0.1970 ns         1 A1I      -0.500900
     31 N23         44.2280     3.7290    -0.6120 nu         1 A1I      -0.942100
     32 N25         45.0290     4.0510    -2.7260 nb         1 A1I      -0.747000
     33 N37         40.0630     4.5120    -3.4080 nb         1 A1I      -0.675000
     34 N7          37.3380    -0.9600     1.3340 ns         1 A1I      -0.512900
     35 O1          41.8900     1.4500     0.6300 o          1 A1I      -0.626100
     36 O30         46.9950     4.8480    -8.3050 o          1 A1I      -0.713500
     37 O31         48.2450     4.4410    -6.5020 o          1 A1I      -0.713500
     38 O6          38.9400    -1.9640     2.5630 o          1 A1I      -0.608100
     39 CL14        31.5650    -6.5610     3.0460 cl         1 A1I      -0.178000
     40 CL16        34.3630    -7.7880     2.2780 cl         1 A1I      -0.175000
     41 H1          39.2980     0.0350     0.0550 hc         1 A1I       0.074700
     42 H2          39.5660     0.7510     1.6250 hc         1 A1I       0.074700
     43 H3          35.3450    -1.1100     1.7850 h1         1 A1I       0.056700
     44 H4          36.3990    -1.9740     2.8870 h1         1 A1I       0.056700
     45 H5          36.0600    -5.7050     1.4470 ha         1 A1I       0.134000
     46 H6          44.6490     1.2830     1.1190 hc         1 A1I       0.037200
     47 H7          45.7270     0.0540     0.5050 hc         1 A1I       0.037200
     48 H8          46.2370     1.8730    -1.4070 hc         1 A1I       0.057200
     49 H9          47.0370     1.9490     0.1430 hc         1 A1I       0.057200
     50 H10         46.2510     4.1650    -0.4780 h1         1 A1I       0.051200
     51 H11         45.4870     3.6010     0.9950 h1         1 A1I       0.051200
     52 H12         33.4780    -2.3080     1.8330 ha         1 A1I       0.119000
     53 H13         31.6890    -3.7620     2.6390 ha         1 A1I       0.130000
     54 H14         44.5410    -0.1340    -1.5750 h1         1 A1I       0.062700
     55 H15         43.6260     1.3260    -1.2980 h1         1 A1I       0.062700
     56 H16         46.9570     4.2260    -4.4020 ha         1 A1I       0.144000
     57 H17         41.3420    -0.9210     2.1260 hc         1 A1I       0.069200
     58 H18         41.0750    -1.7030     0.5840 hc         1 A1I       0.069200
     59 H19         44.5490     4.9100    -7.8670 ha         1 A1I       0.132000
     60 H20         42.5360     4.8230    -6.5070 ha         1 A1I       0.089000
     61 H21         40.9050     4.7500    -5.2450 h4         1 A1I       0.019100
     62 H22         39.3870     4.2640    -1.4740 h4         1 A1I       0.003100
     63 H23         41.5930     3.9530    -0.4940 ha         1 A1I       0.124000
     64 H24         36.9530    -3.5980     1.0290 hc         1 A1I       0.061200
     65 H25         35.8030    -2.7740    -0.0030 hc         1 A1I       0.061200
     66 H26         43.0770    -1.3180    -0.2600 hn         1 A1I       0.311500
     67 H27         43.4540     3.4120    -0.0520 hn         1 A1I       0.493000
     68 H28         37.1490    -0.3060     0.5910 hn         1 A1I       0.316500
@<TRIPOS>BOND
     1     1     2 1   
     2     1    20 1   
     3     1    41 1   
     4     1    42 1   
     5     2    34 1   
     6     2    38 2   
     7     3    29 1   
     8     3    34 1   
     9     3    43 1   
    10     3    44 1   
    11     4     7 ar  
    12     4    14 ar  
    13     4    29 1   
    14     5     6 ar  
    15     5    15 ar  
    16     5    39 1   
    17     6     7 ar  
    18     6    40 1   
    19     7    45 1   
    20     8     9 1   
    21     8    16 1   
    22     8    46 1   
    23     8    47 1   
    24     9    10 1   
    25     9    48 1   
    26     9    49 1   
    27    10    31 1   
    28    10    50 1   
    29    10    51 1   
    30    11    28 ar  
    31    11    31 1   
    32    11    32 ar  
    33    12    18 ar  
    34    12    23 ar  
    35    12    32 ar  
    36    13    18 ar  
    37    13    19 1   
    38    13    21 ar  
    39    14    15 ar  
    40    14    52 1   
    41    15    53 1   
    42    16    30 1   
    43    16    54 1   
    44    16    55 1   
    45    17    20 1   
    46    17    30 1   
    47    17    35 2   
    48    18    56 1   
    49    19    36 1   
    50    19    37 1   
    51    20    57 1   
    52    20    58 1   
    53    21    22 ar  
    54    21    59 1   
    55    22    23 ar  
    56    22    60 1   
    57    23    24 ar  
    58    24    25 ar  
    59    24    28 ar  
    60    25    33 ar  
    61    25    61 1   
    62    26    27 ar  
    63    26    33 ar  
    64    26    62 1   
    65    27    28 ar  
    66    27    63 1   
    67    29    64 1   
    68    29    65 1   
    69    30    66 1   
    70    31    67 1   
    71    34    68 1   
@<TRIPOS>SUBSTRUCTURE
     1 A1I         1 TEMP              0 ****  ****    0 ROOT
