@<TRIPOS>MOLECULE
A1I
   22    22     1     0     0
SMALL
abcg2


@<TRIPOS>ATOM
      1 N            7.8880   -40.1220    26.5610 n8         1 A1I      -1.037200
      2 CA           7.6070   -40.8930    27.7690 c3         1 A1I       0.014500
      3 C            6.1550   -41.4430    27.7660 c          1 A1I       0.721000
      4 O            5.7840   -42.0010    28.8160 o          1 A1I      -0.721000
      5 CB           7.8870   -40.0540    29.0300 c3         1 A1I       0.028600
      6 CG           6.9880   -38.8640    29.1140 cc         1 A1I      -0.143300
      7 ND1          6.7690   -38.0370    28.0490 na         1 A1I      -0.279500
      8 CD2          6.2640   -38.3080    30.1350 cd         1 A1I       0.199900
      9 CE1          5.9380   -37.0540    28.4450 cc         1 A1I       0.356400
     10 NE2          5.6140   -37.1800    29.7090 nd         1 A1I      -0.708000
     11 CF           9.3600   -39.6440    29.1090 c3         1 A1I      -0.084100
     12 H            8.8490   -40.2380    26.2730 hn         1 A1I       0.395000
     13 H2           7.2970   -40.4780    25.8210 hn         1 A1I       0.395000
     14 HA           8.2620   -41.7760    27.8350 h1         1 A1I       0.010700
     15 HB2          7.6700   -40.6860    29.8930 hc         1 A1I       0.079700
     16 HD1          7.1290   -38.2690    27.1260 hn         1 A1I       0.386000
     17 HD2          6.1780   -38.6660    31.1510 h4         1 A1I       0.020100
     18 HE1          5.6000   -36.2750    27.7790 h5         1 A1I       0.030100
     19 H11          9.5730   -39.1290    30.0460 hc         1 A1I       0.018367
     20 H12         10.0050   -40.5240    29.0580 hc         1 A1I       0.018367
     21 H13          9.6400   -38.9760    28.2940 hc         1 A1I       0.018367
     22 OXT          5.5010   -41.3110    26.7140 o          1 A1I      -0.721000
@<TRIPOS>BOND
     1     1     2 1   
     2     1    12 1   
     3     1    13 1   
     4     2     3 1   
     5     2     5 1   
     6     2    14 1   
     7     3     4 1   
     8     3    22 1   
     9     5     6 1   
    10     5    11 1   
    11     5    15 1   
    12     6     7 1   
    13     6     8 2   
    14     7     9 1   
    15     7    16 1   
    16     8    10 1   
    17     8    17 1   
    18     9    10 2   
    19     9    18 1   
    20    11    19 1   
    21    11    20 1   
    22    11    21 1   
@<TRIPOS>SUBSTRUCTURE
     1 A1I         1 TEMP              0 ****  ****    0 ROOT
