@<TRIPOS>MOLECULE
A1I
   49    53     1     0     0
SMALL
abcg2


@<TRIPOS>ATOM
      1 C7         -32.1360   -21.4590    -8.6470 ca         1 A1I       0.096100
      2 C8         -33.4150   -21.9150    -8.3850 ca         1 A1I      -0.113000
      3 N2         -30.1770   -20.2410    -8.0180 ns         1 A1I      -0.142000
      4 C9         -34.0210   -21.6080    -7.1760 ca         1 A1I      -0.083000
      5 C1         -31.4450   -20.7160    -7.6890 ca         1 A1I      -0.089000
      6 C5         -30.1520   -21.8380    -9.8190 c6         1 A1I       0.072600
      7 C3         -29.4590   -20.7270    -9.0560 c          1 A1I       0.543000
      8 O6         -31.5610   -21.7000    -9.8460 os         1 A1I      -0.326100
      9 C10        -33.3390   -20.8700    -6.2130 ca         1 A1I      -0.136600
     10 C11        -33.9240   -20.6410    -4.8560 c          1 A1I       0.621700
     11 O12        -33.2700   -20.9380    -3.8640 o          1 A1I      -0.592100
     12 N13        -35.1820   -20.1570    -4.7930 n          1 A1I      -0.410800
     13 C14        -35.9110   -20.1460    -3.5360 c6         1 A1I       0.097500
     14 C15        -37.3090   -20.7180    -3.7450 c6         1 A1I      -0.088400
     15 C16        -38.0720   -19.9630    -4.8410 c6         1 A1I       0.014500
     16 C17        -39.4470   -20.5130    -5.0450 cc         1 A1I      -0.132400
     17 C18        -40.5470   -20.4000    -4.1330 ca         1 A1I      -0.091800
     18 C19        -41.6490   -21.0640    -4.7180 ca         1 A1I      -0.047200
     19 C20        -42.8890   -21.1340    -4.0870 ca         1 A1I      -0.119000
     20 C21        -43.0220   -20.5280    -2.8540 ca         1 A1I      -0.084000
     21 C22        -41.9310   -19.8680    -2.2710 ca         1 A1I       0.092000
     22 C23        -40.6990   -19.7900    -2.8830 ca         1 A1I      -0.053000
     23 CL1        -42.1550   -19.1190    -0.7150 cl         1 A1I      -0.214000
     24 N25        -41.2360   -21.5520    -5.9190 na         1 A1I      -0.219700
     25 C26        -39.9230   -21.2220    -6.1140 cd         1 A1I      -0.153100
     26 C27        -37.2380   -19.9530    -6.1200 c6         1 A1I      -0.088400
     27 C28        -35.8450   -19.4080    -5.8490 c6         1 A1I       0.097500
     28 C29        -32.0380   -20.4460    -6.4670 ca         1 A1I      -0.082000
     29 H1         -33.9390   -22.4980    -9.1320 ha         1 A1I       0.134000
     30 H2         -29.7470   -19.5450    -7.4230 hn         1 A1I       0.168000
     31 H3         -35.0220   -21.9690    -6.9790 ha         1 A1I       0.126000
     32 H4         -29.8640   -22.7960    -9.3670 h1         1 A1I       0.086700
     33 H5         -29.8090   -21.8330   -10.8510 h1         1 A1I       0.086700
     34 H6         -35.3670   -20.7280    -2.7980 h1         1 A1I       0.054700
     35 H7         -35.9780   -19.1190    -3.1600 h1         1 A1I       0.054700
     36 H8         -37.8520   -20.6740    -2.7990 hc         1 A1I       0.051950
     37 H9         -37.2300   -21.7730    -4.0210 hc         1 A1I       0.051950
     38 H10        -38.1730   -18.9210    -4.5080 hc         1 A1I       0.054700
     39 H11        -43.7280   -21.6430    -4.5430 ha         1 A1I       0.119000
     40 H12        -43.9710   -20.5620    -2.3360 ha         1 A1I       0.128000
     41 H13        -39.8770   -19.2700    -2.4080 ha         1 A1I       0.130000
     42 H14        -41.8050   -22.0650    -6.5730 hn         1 A1I       0.353000
     43 H15        -39.4220   -21.5220    -7.0200 h4         1 A1I       0.213000
     44 H16        -37.7170   -19.3350    -6.8830 hc         1 A1I       0.051950
     45 H17        -37.1570   -20.9660    -6.5260 hc         1 A1I       0.051950
     46 H18        -35.2430   -19.4100    -6.7530 h1         1 A1I       0.054700
     47 H19        -35.9240   -18.3630    -5.5250 h1         1 A1I       0.054700
     48 H20        -31.4890   -19.8820    -5.7220 ha         1 A1I       0.135000
     49 O4         -28.3390   -20.3520    -9.3350 o          1 A1I      -0.525000
@<TRIPOS>BOND
     1     1     2 ar  
     2     1     5 ar  
     3     1     8 1   
     4     2     4 ar  
     5     2    29 1   
     6     3     5 1   
     7     3     7 1   
     8     3    30 1   
     9     4     9 ar  
    10     4    31 1   
    11     5    28 ar  
    12     6     7 1   
    13     6     8 1   
    14     6    32 1   
    15     6    33 1   
    16     7    49 2   
    17     9    10 1   
    18     9    28 ar  
    19    10    11 2   
    20    10    12 1   
    21    12    13 1   
    22    12    27 1   
    23    13    14 1   
    24    13    34 1   
    25    13    35 1   
    26    14    15 1   
    27    14    36 1   
    28    14    37 1   
    29    15    16 1   
    30    15    26 1   
    31    15    38 1   
    32    16    17 1   
    33    16    25 2   
    34    17    18 ar  
    35    17    22 ar  
    36    18    19 ar  
    37    18    24 1   
    38    19    20 ar  
    39    19    39 1   
    40    20    21 ar  
    41    20    40 1   
    42    21    22 ar  
    43    21    23 1   
    44    22    41 1   
    45    24    25 1   
    46    24    42 1   
    47    25    43 1   
    48    26    27 1   
    49    26    44 1   
    50    26    45 1   
    51    27    46 1   
    52    27    47 1   
    53    28    48 1   
@<TRIPOS>SUBSTRUCTURE
     1 A1I         1 TEMP              0 ****  ****    0 ROOT
