@<TRIPOS>MOLECULE
A1I
   19    20     1     0     0
SMALL
abcg2


@<TRIPOS>ATOM
      1 C4         -11.7440   -17.1150    12.8580 cc         1 A1I       0.888100
      2 C5         -10.9670   -15.4080    11.4640 cs         1 A1I       0.560400
      3 C6          -9.6620   -15.8100    11.8300 cc         1 A1I      -0.273600
      4 N1          -8.1300   -17.0700    12.9060 nd         1 A1I      -0.704000
      5 N2         -10.5000   -17.5230    13.2190 na         1 A1I      -0.855100
      6 C3          -9.4380   -16.8540    12.6930 cd         1 A1I       0.498900
      7 N3         -12.7860   -17.7820    13.3620 nv         1 A1I      -1.049200
      8 C2          -7.5240   -16.1480    12.1680 cc         1 A1I       0.461800
      9 N4         -11.9730   -16.1130    12.0290 nd         1 A1I      -0.709100
     10 S1         -11.2440   -14.1340    10.4040 s          1 A1I      -0.565400
     11 N5          -8.4040   -15.3750    11.5070 na         1 A1I      -0.245500
     12 H4         -10.3560   -18.3020    13.8490 hn         1 A1I       0.518000
     13 H6         -13.7100   -17.4390    13.1680 hn         1 A1I       0.512500
     14 H5         -12.6850   -18.4730    14.0860 hn         1 A1I       0.512500
     15 H3          -5.5520   -16.6890    12.7070 hc         1 A1I       0.065033
     16 H1          -5.7140   -16.1270    11.0400 hc         1 A1I       0.065033
     17 H2          -5.7580   -14.9680    12.3630 hc         1 A1I       0.065033
     18 H7          -8.1900   -14.6070    10.8870 hn         1 A1I       0.386000
     19 C1          -6.0560   -15.9730    12.0640 c3         1 A1I      -0.133400
@<TRIPOS>BOND
     1     1     5 1   
     2     1     7 1   
     3     1     9 2   
     4     2     3 1   
     5     2     9 1   
     6     2    10 2   
     7     3     6 2   
     8     3    11 1   
     9     4     6 1   
    10     4     8 2   
    11     5     6 1   
    12     5    12 1   
    13     7    13 1   
    14     7    14 1   
    15     8    11 1   
    16     8    19 1   
    17    11    18 1   
    18    15    19 1   
    19    16    19 1   
    20    17    19 1   
@<TRIPOS>SUBSTRUCTURE
     1 A1I         1 TEMP              0 ****  ****    0 ROOT
