@<TRIPOS>MOLECULE
A1I
   22    22     1     0     0
SMALL
abcg2


@<TRIPOS>ATOM
      1 C14         -0.8480    25.8600     8.5580 ca         1 A1I      -0.029000
      2 C13         -0.1840    26.5830     7.5970 ca         1 A1I      -0.182000
      3 C8           3.1110    28.0330     7.1770 c3         1 A1I       0.097600
      4 C6           1.1320    26.9660     7.8720 ca         1 A1I       0.605300
      5 C4           1.1100    25.9580     9.9050 ca         1 A1I       0.445900
      6 C3          -0.1980    25.5220     9.7530 ca         1 A1I      -0.220600
      7 C9           3.5950    28.6710     5.8970 c3         1 A1I       0.305000
      8 F10          4.8680    29.0580     6.0280 f          1 A1I      -0.107667
      9 F11          3.5340    27.8240     4.8650 f          1 A1I      -0.107667
     10 F12          2.8780    29.7490     5.5640 f          1 A1I      -0.107667
     11 N1          -2.1560    24.9130    10.9570 nt         1 A1I      -0.499000
     12 N5           1.7570    26.6710     8.9910 nb         1 A1I      -0.759000
     13 O7           1.7720    27.6630     6.9320 os         1 A1I      -0.444300
     14 S15          0.0040    23.6580    11.7570 s          1 A1I      -0.567400
     15 H1          -1.8610    25.5320     8.3610 ha         1 A1I       0.122000
     16 H2          -0.6520    26.8410     6.6570 ha         1 A1I       0.148000
     17 H3           3.7420    27.1710     7.4100 h1         1 A1I       0.088700
     18 H4           3.1950    28.7490     7.9990 h1         1 A1I       0.088700
     19 H5           1.6560    25.7280    10.8120 h4         1 A1I       0.054100
     20 H6          -2.6680    24.3760    11.6390 hn         1 A1I       0.325000
     21 H7          -2.6650    25.6320    10.4670 hn         1 A1I       0.325000
     22 C2          -0.8540    24.7320    10.8140 cs         1 A1I       0.419000
@<TRIPOS>BOND
     1     1     2 ar  
     2     1     6 ar  
     3     1    15 1   
     4     2     4 ar  
     5     2    16 1   
     6     3     7 1   
     7     3    13 1   
     8     3    17 1   
     9     3    18 1   
    10     4    12 ar  
    11     4    13 1   
    12     5     6 ar  
    13     5    12 ar  
    14     5    19 1   
    15     6    22 1   
    16     7     8 1   
    17     7     9 1   
    18     7    10 1   
    19    11    20 1   
    20    11    21 1   
    21    11    22 1   
    22    14    22 2   
@<TRIPOS>SUBSTRUCTURE
     1 A1I         1 TEMP              0 ****  ****    0 ROOT
