@<TRIPOS>MOLECULE
A1I
   55    58     1     0     0
SMALL
abcg2


@<TRIPOS>ATOM
      1 N3         -15.0510     7.3870    -1.9620 nc         1 A1I      -0.188800
      2 C4         -22.1370    11.5390    -1.3290 c3         1 A1I       0.095300
      3 C6         -11.4310     8.4800    -0.2580 ca         1 A1I      -0.135000
      4 C7         -12.6750     8.6090     0.3580 ca         1 A1I      -0.061500
      5 C8         -21.8700     9.4790    -2.6560 ca         1 A1I      -0.039000
      6 C10        -12.7530     9.1190     1.6530 ca         1 A1I      -0.135000
      7 C13        -15.2040     8.3460     0.0080 cc         1 A1I      -0.189000
      8 C15        -20.0790     5.4990     0.3490 c3         1 A1I       0.172600
      9 C20        -22.8920     7.9040    -4.7140 ca         1 A1I      -0.100000
     10 C21        -22.9290     7.4730    -3.3980 ca         1 A1I       0.128500
     11 C22        -22.4360     8.2450    -2.3590 ca         1 A1I      -0.107000
     12 N9         -21.3920    10.3180    -1.6190 n          1 A1I      -0.235400
     13 C1         -20.3120    10.0320    -0.8530 c          1 A1I       0.631100
     14 C2         -19.5190     8.7700    -1.1840 c6         1 A1I       0.083300
     15 C3         -18.0250     9.0140    -0.9890 c6         1 A1I       0.142300
     16 C16        -17.3120     7.6780    -1.1990 c6         1 A1I       0.034300
     17 NAA        -15.8810     7.8190    -1.0230 na         1 A1I       0.129800
     18 N2         -13.8520     7.6180    -1.5690 nd         1 A1I      -0.346000
     19 C17        -13.8840     8.2120    -0.3540 cd         1 A1I       0.239500
     20 C9         -10.2950     8.8560     0.4250 ca         1 A1I       0.160000
     21 F1          -9.0980     8.7430    -0.1510 f          1 A1I      -0.154000
     22 C11        -11.5990     9.4890     2.3090 ca         1 A1I       0.160000
     23 F2         -11.6600     9.9770     3.5470 f          1 A1I      -0.154000
     24 C12        -10.3580     9.3610     1.7110 ca         1 A1I       0.088000
     25 F3          -9.2490     9.7100     2.3590 f          1 A1I      -0.142000
     26 O3         -17.6050     9.9580    -1.9370 oh         1 A1I      -0.707000
     27 O2         -19.9870     7.7800    -0.3040 os         1 A1I      -0.412000
     28 C14        -19.3950     6.5160    -0.5390 c6         1 A1I       0.160300
     29 C5         -17.8900     6.5800    -0.2950 c6         1 A1I       0.132300
     30 O5         -17.6300     6.8590     1.0580 oh         1 A1I      -0.705000
     31 O1         -19.9840    10.7480     0.0760 o          1 A1I      -0.578100
     32 C18        -21.8140     9.9380    -3.9670 ca         1 A1I      -0.107000
     33 C19        -22.3320     9.1450    -4.9760 ca         1 A1I       0.128500
     34 CL1        -22.2750     9.7070    -6.6080 cl         1 A1I      -0.180500
     35 CL2        -23.6380     5.9370    -3.0450 cl         1 A1I      -0.180500
     36 H1         -22.9460    11.6350    -2.0460 h1         1 A1I       0.049367
     37 H3         -22.5660    11.5050    -0.3280 h1         1 A1I       0.049367
     38 H2         -21.4960    12.4160    -1.4050 h1         1 A1I       0.049367
     39 H7         -11.3440     8.0930    -1.2640 ha         1 A1I       0.148500
     40 H8         -13.7000     9.2280     2.1660 ha         1 A1I       0.148500
     41 H9         -15.6790     8.7680     0.8760 h4         1 A1I       0.181000
     42 H13        -19.5240     4.5550     0.2670 h1         1 A1I       0.037200
     43 H12        -20.0160     5.8220     1.3930 h1         1 A1I       0.037200
     44 H18        -23.2890     7.2930    -5.5120 ha         1 A1I       0.148000
     45 H19        -22.4860     7.8960    -1.3370 ha         1 A1I       0.153000
     46 H4         -19.6760     8.4660    -2.2300 h1         1 A1I       0.066700
     47 H5         -17.8640     9.3660     0.0350 h1         1 A1I       0.085700
     48 H6         -17.4460     7.3690    -2.2400 h1         1 A1I       0.108700
     49 H10        -17.0440    10.6110    -1.5100 ho         1 A1I       0.524000
     50 H11        -19.5470     6.2210    -1.5900 h1         1 A1I       0.059700
     51 H14        -21.8680     4.7810     0.5390 ho         1 A1I       0.511000
     52 H15        -17.4530     5.6220    -0.5990 h1         1 A1I       0.059700
     53 H16        -16.9340     6.2760     1.3750 ho         1 A1I       0.513000
     54 H17        -21.3710    10.8990    -4.1900 ha         1 A1I       0.153000
     55 OP3        -21.4120     5.3590    -0.0790 oh         1 A1I      -0.713000
@<TRIPOS>BOND
     1     1    17 1   
     2     1    18 2   
     3     2    12 1   
     4     2    36 1   
     5     2    37 1   
     6     2    38 1   
     7     3     4 ar  
     8     3    20 ar  
     9     3    39 1   
    10     4     6 ar  
    11     4    19 1   
    12     5    11 ar  
    13     5    12 1   
    14     5    32 ar  
    15     6    22 ar  
    16     6    40 1   
    17     7    17 1   
    18     7    19 2   
    19     7    41 1   
    20     8    28 1   
    21     8    42 1   
    22     8    43 1   
    23     8    55 1   
    24     9    10 ar  
    25     9    33 ar  
    26     9    44 1   
    27    10    11 ar  
    28    10    35 1   
    29    11    45 1   
    30    12    13 1   
    31    13    14 1   
    32    13    31 2   
    33    14    15 1   
    34    14    27 1   
    35    14    46 1   
    36    15    16 1   
    37    15    26 1   
    38    15    47 1   
    39    16    17 1   
    40    16    29 1   
    41    16    48 1   
    42    18    19 1   
    43    20    21 1   
    44    20    24 ar  
    45    22    23 1   
    46    22    24 ar  
    47    24    25 1   
    48    26    49 1   
    49    27    28 1   
    50    28    29 1   
    51    28    50 1   
    52    29    30 1   
    53    29    52 1   
    54    30    53 1   
    55    32    33 ar  
    56    32    54 1   
    57    33    34 1   
    58    51    55 1   
@<TRIPOS>SUBSTRUCTURE
     1 A1I         1 TEMP              0 ****  ****    0 ROOT
