@<TRIPOS>MOLECULE
A1I
   42    46     1     0     0
SMALL
abcg2


@<TRIPOS>ATOM
      1 C1         -33.1170   -70.8080   -69.4480 c          1 A1I       0.624700
      2 C10        -34.3160   -64.2780   -70.8750 cx         1 A1I      -0.135700
      3 C11        -32.6250   -66.5850   -70.6890 c5         1 A1I      -0.143700
      4 C12        -32.3680   -68.0450   -70.9500 c          1 A1I       0.585000
      5 C13        -33.3590   -72.2780   -69.5050 ca         1 A1I      -0.117600
      6 C14        -34.4380   -72.8350   -70.1880 ca         1 A1I      -0.075500
      7 C15        -34.6520   -74.2020   -70.1540 ca         1 A1I      -0.070000
      8 C16        -33.7870   -75.0230   -69.4390 ca         1 A1I      -0.176300
      9 C17        -34.0570   -76.4970   -69.4140 c3         1 A1I       0.356300
     10 C18        -32.7060   -74.4750   -68.7610 ca         1 A1I      -0.070000
     11 C19        -32.5010   -73.1050   -68.7890 ca         1 A1I      -0.075500
     12 C2         -34.4660   -67.9570   -69.9240 c          1 A1I       0.585000
     13 C3         -34.0100   -66.5280   -70.0210 c5         1 A1I      -0.143700
     14 C4         -34.9680   -65.6620   -70.8820 c6         1 A1I       0.010500
     15 C5         -34.9590   -66.2430   -72.2660 c2         1 A1I      -0.223200
     16 C6         -33.7590   -66.2840   -72.8410 c2         1 A1I      -0.223200
     17 C7         -32.6430   -65.7450   -71.9960 c6         1 A1I       0.010500
     18 C8         -32.9630   -64.3270   -71.5200 cx         1 A1I      -0.135700
     19 C9         -34.0560   -63.5080   -72.1310 cx         1 A1I      -0.089400
     20 F1         -33.9470   -77.0390   -70.6340 f          1 A1I      -0.111333
     21 F2         -35.3010   -76.7570   -68.9900 f          1 A1I      -0.111333
     22 F3         -33.2220   -77.1600   -68.6120 f          1 A1I      -0.111333
     23 N1         -33.5570   -70.0950   -70.5220 ns         1 A1I      -0.363500
     24 N2         -33.4740   -68.7460   -70.4910 n          1 A1I      -0.254000
     25 O1         -32.5720   -70.2740   -68.5060 o          1 A1I      -0.563100
     26 O3         -31.4140   -68.5610   -71.4660 o          1 A1I      -0.481500
     27 H10        -34.4410   -63.7200   -69.9540 hc         1 A1I       0.089200
     28 H11        -31.8400   -66.2100   -70.0270 hc         1 A1I       0.099700
     29 H12        -35.1450   -72.2160   -70.7240 ha         1 A1I       0.134500
     30 H13        -35.5040   -74.6120   -70.6790 ha         1 A1I       0.135500
     31 H14        -32.0220   -75.0960   -68.2020 ha         1 A1I       0.135500
     32 H15        -31.6650   -72.6830   -68.2480 ha         1 A1I       0.134500
     33 H2         -33.9560   -66.1150   -69.0100 hc         1 A1I       0.099700
     34 H3         -35.9640   -65.6420   -70.4420 hc         1 A1I       0.084700
     35 H4         -35.8680   -66.5880   -72.7410 ha         1 A1I       0.195500
     36 H5         -33.5810   -66.6670   -73.8380 ha         1 A1I       0.195500
     37 H6         -31.6760   -65.7940   -72.4960 hc         1 A1I       0.084700
     38 H7         -32.1350   -63.8060   -71.0520 hc         1 A1I       0.089200
     39 H9         -33.9680   -62.4340   -72.0240 hc         1 A1I       0.079700
     40 H8         -34.5110   -63.8240   -73.0610 hc         1 A1I       0.079700
     41 H1         -33.8980   -70.5170   -71.3730 hn         1 A1I       0.348500
     42 O2         -35.4860   -68.3930   -69.4630 o          1 A1I      -0.481500
@<TRIPOS>BOND
     1     1     5 1   
     2     1    23 1   
     3     1    25 2   
     4     2    14 1   
     5     2    18 1   
     6     2    19 1   
     7     2    27 1   
     8     3     4 1   
     9     3    13 1   
    10     3    17 1   
    11     3    28 1   
    12     4    24 1   
    13     4    26 2   
    14     5     6 ar  
    15     5    11 ar  
    16     6     7 ar  
    17     6    29 1   
    18     7     8 ar  
    19     7    30 1   
    20     8     9 1   
    21     8    10 ar  
    22     9    20 1   
    23     9    21 1   
    24     9    22 1   
    25    10    11 ar  
    26    10    31 1   
    27    11    32 1   
    28    12    13 1   
    29    12    24 1   
    30    12    42 2   
    31    13    14 1   
    32    13    33 1   
    33    14    15 1   
    34    14    34 1   
    35    15    16 2   
    36    15    35 1   
    37    16    17 1   
    38    16    36 1   
    39    17    18 1   
    40    17    37 1   
    41    18    19 1   
    42    18    38 1   
    43    19    39 1   
    44    19    40 1   
    45    23    24 1   
    46    23    41 1   
@<TRIPOS>SUBSTRUCTURE
     1 A1I         1 TEMP              0 ****  ****    0 ROOT
