@<TRIPOS>MOLECULE
A1I
   34    35     1     0     0
SMALL
abcg2


@<TRIPOS>ATOM
      1 C02         20.7880    -0.7930    30.3790 c          1 A1I       0.710600
      2 C04         20.1820     0.5950    30.1810 ca         1 A1I      -0.106600
      3 C05         19.7650     1.3130    31.2990 ca         1 A1I      -0.098000
      4 C06         19.2990     2.6150    31.1940 ca         1 A1I      -0.129000
      5 C07         19.2240     3.2190    29.9460 ca         1 A1I      -0.150000
      6 C08         19.6060     2.5090    28.8190 ca         1 A1I      -0.106000
      7 C09         20.0900     1.2030    28.9210 ca         1 A1I      -0.130900
      8 C10         20.4400     0.4870    27.6840 ce         1 A1I       0.507800
      9 C13         22.0080     1.0620    24.7070 c3         1 A1I       0.208900
     10 C14         22.1430     0.2040    23.4760 ca         1 A1I      -0.023300
     11 C15         23.1240    -0.7820    23.4970 ca         1 A1I      -0.095000
     12 C16         23.3170    -1.6370    22.4230 ca         1 A1I      -0.088000
     13 C17         22.5180    -1.5150    21.2990 ca         1 A1I      -0.123000
     14 C18         21.5300    -0.5440    21.2580 ca         1 A1I      -0.077000
     15 C19         21.3320     0.3090    22.3380 ca         1 A1I      -0.178300
     16 C20         20.2530     1.3490    22.2490 c3         1 A1I       0.354300
     17 F21         19.3790     1.2590    23.2610 f          1 A1I      -0.114667
     18 F22         19.5410     1.2500    21.1220 f          1 A1I      -0.114667
     19 F23         20.7500     2.5950    22.2730 f          1 A1I      -0.114667
     20 N11         21.0140     1.1250    26.7500 n2         1 A1I      -0.393700
     21 O01         20.4860    -1.3870    31.4290 o          1 A1I      -0.714000
     22 O03         21.5540    -1.1920    29.4800 o          1 A1I      -0.714000
     23 O12         21.1780     0.3610    25.6190 os         1 A1I      -0.318000
     24 H051        19.8240     0.8430    32.2720 ha         1 A1I       0.128000
     25 H061        18.9950     3.1560    32.0810 ha         1 A1I       0.087000
     26 H071        18.8570     4.2320    29.8480 ha         1 A1I       0.087000
     27 H081        19.5130     2.9660    27.8420 ha         1 A1I       0.102000
     28 H101        20.1450    -0.5530    27.5700 h4         1 A1I       0.030800
     29 H131        23.0020     1.2100    25.1400 h1         1 A1I       0.045200
     30 H132        21.6020     2.0540    24.5040 h1         1 A1I       0.045200
     31 H151        23.7560    -0.8720    24.3720 ha         1 A1I       0.133000
     32 H161        24.0910    -2.3920    22.4660 ha         1 A1I       0.114000
     33 H171        22.6600    -2.1700    20.4500 ha         1 A1I       0.110000
     34 H181        20.9170    -0.4650    20.3720 ha         1 A1I       0.122000
@<TRIPOS>BOND
     1     1     2 1   
     2     1    21 1   
     3     1    22 1   
     4     2     3 ar  
     5     2     7 ar  
     6     3     4 ar  
     7     3    24 1   
     8     4     5 ar  
     9     4    25 1   
    10     5     6 ar  
    11     5    26 1   
    12     6     7 ar  
    13     6    27 1   
    14     7     8 1   
    15     8    20 2   
    16     8    28 1   
    17     9    10 1   
    18     9    23 1   
    19     9    29 1   
    20     9    30 1   
    21    10    11 ar  
    22    10    15 ar  
    23    11    12 ar  
    24    11    31 1   
    25    12    13 ar  
    26    12    32 1   
    27    13    14 ar  
    28    13    33 1   
    29    14    15 ar  
    30    14    34 1   
    31    15    16 1   
    32    16    17 1   
    33    16    18 1   
    34    16    19 1   
    35    20    23 1   
@<TRIPOS>SUBSTRUCTURE
     1 A1I         1 TEMP              0 ****  ****    0 ROOT
