@<TRIPOS>MOLECULE
A1I
   35    37     1     0     0
SMALL
abcg2


@<TRIPOS>ATOM
      1 CA          35.0780     3.7170    51.4590 c5         1 A1I       0.015500
      2 O           35.9850     5.1290    49.7920 o          1 A1I      -0.727500
      3 CB          34.8580     2.3420    50.8030 c5         1 A1I      -0.111400
      4 C           34.9450     4.8430    50.4140 c          1 A1I       0.732000
      5 CG          33.3310     2.1880    50.8180 c5         1 A1I       0.082700
      6 C32         31.8080     2.6880    47.4010 ca         1 A1I       0.332500
      7 C34         32.1080     4.5560    46.1020 ca         1 A1I       0.346900
      8 C35         31.1500     4.1810    45.2070 ca         1 A1I      -0.165000
      9 C36         30.4380     2.9840    45.4250 ca         1 A1I      -0.021000
     10 C37         29.4060     2.5650    44.5540 ca         1 A1I      -0.118000
     11 C38         28.7120     1.4170    44.8110 ca         1 A1I      -0.099000
     12 C39         29.0170     0.6450    45.9510 ca         1 A1I      -0.139000
     13 C40         30.0180     1.0180    46.8050 ca         1 A1I      -0.053000
     14 C41         30.7670     2.1960    46.5600 ca         1 A1I      -0.063000
     15 CD          32.9000     3.0340    52.0440 c5         1 A1I       0.147800
     16 N29         32.7060     2.6850    49.6110 ns         1 A1I      -0.451900
     17 N33         32.4280     3.8180    47.1810 nb         1 A1I      -0.623000
     18 N           34.0700     3.7720    52.5170 n7         1 A1I      -0.806400
     19 O31         32.3430     0.6870    48.5980 o          1 A1I      -0.657100
     20 HA          36.0720     3.7800    51.9090 h1         1 A1I       0.045700
     21 HB2         35.2820     2.2400    49.8030 hc         1 A1I       0.041200
     22 HB3         35.3050     1.5670    51.4310 hc         1 A1I       0.041200
     23 OXT         33.8090     5.3420    50.2390 o          1 A1I      -0.727500
     24 HG2         33.0410     1.1450    50.9350 h1         1 A1I       0.052700
     25 H6          32.6620     5.4780    45.9740 h4         1 A1I       0.030100
     26 H7          30.9240     4.8000    44.3480 ha         1 A1I       0.113000
     27 H8          29.1710     3.1720    43.6900 ha         1 A1I       0.106000
     28 H9          27.9190     1.0990    44.1460 ha         1 A1I       0.101000
     29 H10         28.4510    -0.2550    46.1520 ha         1 A1I       0.106000
     30 H11         30.2330     0.4090    47.6690 ha         1 A1I       0.145000
     31 HD2         32.0940     3.7110    51.7570 h1         1 A1I       0.039200
     32 HD3         32.5100     2.3980    52.8400 h1         1 A1I       0.039200
     33 H14         32.7480     3.6900    49.4760 hn         1 A1I       0.387500
     34 H           34.4470     3.2830    53.3180 hn         1 A1I       0.357000
     35 C30         32.3100     1.9130    48.5980 c          1 A1I       0.500600
@<TRIPOS>BOND
     1     1     3 1   
     2     1     4 1   
     3     1    18 1   
     4     1    20 1   
     5     2     4 1   
     6     3     5 1   
     7     3    21 1   
     8     3    22 1   
     9     4    23 1   
    10     5    15 1   
    11     5    16 1   
    12     5    24 1   
    13     6    14 ar  
    14     6    17 ar  
    15     6    35 1   
    16     7     8 ar  
    17     7    17 ar  
    18     7    25 1   
    19     8     9 ar  
    20     8    26 1   
    21     9    10 ar  
    22     9    14 ar  
    23    10    11 ar  
    24    10    27 1   
    25    11    12 ar  
    26    11    28 1   
    27    12    13 ar  
    28    12    29 1   
    29    13    14 ar  
    30    13    30 1   
    31    15    18 1   
    32    15    31 1   
    33    15    32 1   
    34    16    33 1   
    35    16    35 1   
    36    18    34 1   
    37    19    35 2   
@<TRIPOS>SUBSTRUCTURE
     1 A1I         1 TEMP              0 ****  ****    0 ROOT
