@<TRIPOS>MOLECULE
A1I
   58    61     1     0     0
SMALL
abcg2


@<TRIPOS>ATOM
      1 C10        -14.5130   -30.2380   -25.3270 c3         1 A1I      -0.059400
      2 C11        -14.8240   -30.1500   -26.8250 c6         1 A1I      -0.052700
      3 C12        -16.2930   -29.8480   -27.1180 c6         1 A1I      -0.069400
      4 C1         -17.7740   -27.0590   -24.4920 c3         1 A1I       0.156900
      5 C2         -16.8110   -27.7490   -22.4530 ca         1 A1I       0.602300
      6 C3         -16.5610   -27.4580   -21.0820 ca         1 A1I      -0.165000
      7 C4         -15.8210   -28.3430   -20.3680 ca         1 A1I      -0.024000
      8 C5         -15.3190   -29.5140   -20.9960 ca         1 A1I       0.194000
      9 N1         -14.5780   -30.3810   -20.2790 nb         1 A1I      -0.639000
     10 C6         -14.1340   -31.4460   -20.8980 ca         1 A1I       0.334900
     11 C7         -14.3860   -31.7290   -22.2510 ca         1 A1I      -0.138000
     12 C8         -15.1380   -30.8640   -23.0060 ca         1 A1I      -0.077300
     13 C9         -15.4280   -31.1110   -24.4700 c3         1 A1I       0.223600
     14 O2         -15.2340   -32.4600   -24.8220 oh         1 A1I      -0.657000
     15 C13        -16.5090   -29.5660   -28.6000 c6         1 A1I      -0.089400
     16 C14        -16.0200   -30.7280   -29.4700 c6         1 A1I       0.173500
     17 N2         -16.2250   -30.5540   -30.9070 n7         1 A1I      -0.862400
     18 C15        -15.7520   -29.2990   -31.4640 c3         1 A1I       0.199100
     19 C16        -15.8410   -29.3360   -32.9650 ca         1 A1I      -0.018300
     20 C17        -16.7220   -28.5000   -33.6350 ca         1 A1I      -0.161000
     21 C18        -16.8050   -28.5560   -35.0130 ca         1 A1I       0.223000
     22 F1         -17.6590   -27.7540   -35.6460 f          1 A1I      -0.154500
     23 C19        -16.0250   -29.4250   -35.7560 ca         1 A1I      -0.131900
     24 BR1        -16.1580   -29.4960   -37.6170 br         1 A1I      -0.035100
     25 C20        -15.1440   -30.2470   -35.0640 ca         1 A1I       0.223000
     26 F2         -14.3680   -31.0750   -35.7630 f          1 A1I      -0.154500
     27 C21        -15.0510   -30.2250   -33.6910 ca         1 A1I      -0.161000
     28 C22        -14.5650   -31.0640   -29.1520 c6         1 A1I      -0.089400
     29 C23        -14.3690   -31.3430   -27.6640 c6         1 A1I      -0.069400
     30 C24        -15.6300   -29.7020   -22.3590 ca         1 A1I       0.277000
     31 N3         -16.3760   -28.8110   -23.0580 nb         1 A1I      -0.772000
     32 H1         -13.4790   -30.5710   -25.1830 hc         1 A1I       0.055200
     33 H2         -14.5640   -29.2250   -24.9240 hc         1 A1I       0.055200
     34 H3         -14.2470   -29.2860   -27.1830 hc         1 A1I       0.039700
     35 H4         -16.6300   -28.9950   -26.5220 hc         1 A1I       0.045700
     36 H5         -16.9140   -30.7000   -26.8210 hc         1 A1I       0.045700
     37 H6         -18.3730   -26.2150   -24.8240 h1         1 A1I       0.047700
     38 H7         -16.8430   -27.0860   -25.0620 h1         1 A1I       0.047700
     39 H8         -18.3210   -27.9850   -24.6720 h1         1 A1I       0.047700
     40 H10        -15.5970   -28.1740   -19.3220 ha         1 A1I       0.141000
     41 H11        -13.5380   -32.1380   -20.3130 h4         1 A1I       0.023100
     42 H12        -13.9840   -32.6360   -22.6810 ha         1 A1I       0.137000
     43 H13        -16.4670   -30.8100   -24.6480 h1         1 A1I       0.057700
     44 H14        -15.9270   -32.9870   -24.4110 ho         1 A1I       0.443000
     45 H15        -15.9720   -28.6490   -28.8650 hc         1 A1I       0.041450
     46 H16        -17.5680   -29.3760   -28.8000 hc         1 A1I       0.041450
     47 H17        -16.6150   -31.6090   -29.1990 h1         1 A1I       0.058700
     48 H18        -17.2140   -30.6400   -31.1080 hn         1 A1I       0.414000
     49 H20        -14.7080   -29.1560   -31.1770 h1         1 A1I       0.043700
     50 H21        -16.2960   -28.4160   -31.1040 h1         1 A1I       0.043700
     51 H22        -17.3480   -27.8020   -33.0930 ha         1 A1I       0.142500
     52 H23        -14.3580   -30.8900   -33.1910 ha         1 A1I       0.142500
     53 H24        -14.2600   -31.9310   -29.7450 hc         1 A1I       0.041450
     54 H25        -13.9120   -30.2360   -29.4480 hc         1 A1I       0.041450
     55 H26        -14.9310   -32.2370   -27.3840 hc         1 A1I       0.045700
     56 H27        -13.3160   -31.5610   -27.4640 hc         1 A1I       0.045700
     57 H9         -16.9550   -26.5540   -20.6380 ha         1 A1I       0.142000
     58 O1         -17.5340   -26.8460   -23.1090 os         1 A1I      -0.455300
@<TRIPOS>BOND
     1     1     2 1   
     2     1    13 1   
     3     1    32 1   
     4     1    33 1   
     5     2     3 1   
     6     2    29 1   
     7     2    34 1   
     8     3    15 1   
     9     3    35 1   
    10     3    36 1   
    11     4    37 1   
    12     4    38 1   
    13     4    39 1   
    14     4    58 1   
    15     5     6 ar  
    16     5    31 ar  
    17     5    58 1   
    18     6     7 ar  
    19     6    57 1   
    20     7     8 ar  
    21     7    40 1   
    22     8     9 ar  
    23     8    30 ar  
    24     9    10 ar  
    25    10    11 ar  
    26    10    41 1   
    27    11    12 ar  
    28    11    42 1   
    29    12    13 1   
    30    12    30 ar  
    31    13    14 1   
    32    13    43 1   
    33    14    44 1   
    34    15    16 1   
    35    15    45 1   
    36    15    46 1   
    37    16    17 1   
    38    16    28 1   
    39    16    47 1   
    40    17    18 1   
    41    17    48 1   
    42    18    19 1   
    43    18    49 1   
    44    18    50 1   
    45    19    20 ar  
    46    19    27 ar  
    47    20    21 ar  
    48    20    51 1   
    49    21    22 1   
    50    21    23 ar  
    51    23    24 1   
    52    23    25 ar  
    53    25    26 1   
    54    25    27 ar  
    55    27    52 1   
    56    28    29 1   
    57    28    53 1   
    58    28    54 1   
    59    29    55 1   
    60    29    56 1   
    61    30    31 ar  
@<TRIPOS>SUBSTRUCTURE
     1 A1I         1 TEMP              0 ****  ****    0 ROOT
