@<TRIPOS>MOLECULE
A1I
   60    62     1     0     0
SMALL
abcg2


@<TRIPOS>ATOM
      1 C5         -36.5290    -4.1730   -12.5300 c3         1 A1I       0.172800
      2 C2         -34.8860    -3.2690   -15.6570 c3         1 A1I       0.162800
      3 C7         -38.0540    -2.6860   -11.1290 c3         1 A1I       0.008500
      4 C13        -33.6870   -10.7280   -16.6620 ca         1 A1I      -0.099600
      5 N6         -33.3000   -12.0430   -18.6420 nv         1 A1I      -1.069900
      6 C8         -38.5810    -1.8820   -12.3500 c          1 A1I       0.691000
      7 C3         -34.6610    -2.6010   -14.3010 c3         1 A1I      -0.161400
      8 C1         -34.0400    -1.5090   -17.1260 c3         1 A1I       0.151100
      9 N1         -35.1440    -2.3800   -16.7770 n7         1 A1I      -0.869400
     10 N2         -35.1710    -4.6120   -12.8010 n3         1 A1I      -0.773600
     11 C6         -36.6200    -3.1570   -11.4000 c3         1 A1I      -0.042400
     12 N3         -38.8930    -3.8030   -10.7100 n8         1 A1I      -1.002200
     13 C9         -35.1310    -5.8070   -13.6160 c3         1 A1I       0.172800
     14 C10        -35.2300    -7.0580   -12.7440 c5         1 A1I       0.126300
     15 O3         -35.4350    -8.2130   -13.5670 os         1 A1I      -0.452000
     16 C11        -34.3080    -9.0400   -13.5470 c5         1 A1I       0.313300
     17 N4         -34.0200    -9.4970   -14.8860 na         1 A1I      -0.282300
     18 C12        -33.8110    -8.7280   -15.9990 cc         1 A1I       0.418700
     19 N5         -33.6070    -9.4230   -17.0780 nd         1 A1I      -0.565100
     20 C14        -33.5660   -11.9560   -17.3370 ca         1 A1I       0.444900
     21 N7         -33.7150   -13.0790   -16.6240 nb         1 A1I      -0.311000
     22 C15        -33.9650   -12.9910   -15.3210 ca         1 A1I       0.173900
     23 N8         -34.0960   -11.9040   -14.5810 nb         1 A1I      -0.206000
     24 C16        -33.9480   -10.7960   -15.3020 ca         1 A1I       0.140500
     25 C17        -33.1850    -8.2090   -12.9250 c5         1 A1I       0.132300
     26 O4         -32.2150    -9.0590   -12.3980 oh         1 A1I      -0.681000
     27 C18        -33.9650    -7.3460   -11.9370 c5         1 A1I       0.111300
     28 O5         -34.2180    -8.1200   -10.7920 oh         1 A1I      -0.706000
     29 H11        -37.0120    -3.7760   -13.4380 h1         1 A1I       0.046200
     30 H12        -37.1160    -5.0510   -12.2450 h1         1 A1I       0.046200
     31 H5         -35.7320    -3.9570   -15.5880 h1         1 A1I       0.040700
     32 H6         -34.0140    -3.8830   -15.9110 h1         1 A1I       0.040700
     33 H15        -37.9930    -1.9900   -10.2860 h1         1 A1I       0.036700
     34 H25        -33.3070   -12.9400   -19.0970 hn         1 A1I       0.501500
     35 H24        -33.2640   -11.2200   -19.2170 hn         1 A1I       0.501500
     36 H9         -33.2970    -4.0300   -13.4450 h1         1 A1I       0.033700
     37 H10        -34.0280    -2.9520   -12.2930 h1         1 A1I       0.033700
     38 H7         -33.8670    -1.8530   -14.3860 hc         1 A1I       0.064200
     39 H8         -35.5630    -2.0500   -14.0160 hc         1 A1I       0.064200
     40 H1         -34.3180    -0.8970   -17.9850 h1         1 A1I       0.020367
     41 H2         -33.7060    -0.8290   -16.3330 h1         1 A1I       0.020367
     42 H3         -33.1790    -2.1110   -17.4230 h1         1 A1I       0.020367
     43 H31        -35.9650    -1.8220   -16.5790 hn         1 A1I       0.426000
     44 H13        -36.2060    -3.6060   -10.4920 hc         1 A1I       0.030700
     45 H14        -36.0130    -2.2800   -11.6260 hc         1 A1I       0.030700
     46 H16        -39.6980    -3.4360   -10.2170 hn         1 A1I       0.383500
     47 H17        -39.2880    -4.2200   -11.5460 hn         1 A1I       0.383500
     48 H19        -35.9390    -5.8430   -14.3620 h1         1 A1I       0.036700
     49 H20        -34.1970    -5.8280   -14.1850 h1         1 A1I       0.036700
     50 H21        -36.0940    -6.9620   -12.0770 h1         1 A1I       0.095700
     51 H22        -34.4810    -9.9440   -12.9530 h2         1 A1I       0.123700
     52 H23        -33.8260    -7.6490   -15.9540 h5         1 A1I       0.070800
     53 H26        -34.0760   -13.9380   -14.8030 h5         1 A1I       0.041100
     54 H27        -32.7610    -7.5430   -13.6890 h1         1 A1I       0.041700
     55 H28        -31.4340    -8.5400   -12.1790 ho         1 A1I       0.507000
     56 H29        -33.4380    -6.4160   -11.6890 h1         1 A1I       0.071700
     57 H30        -34.7730    -7.6050   -10.1960 ho         1 A1I       0.514000
     58 O1         -39.5510    -2.3550   -12.9740 o          1 A1I      -0.733500
     59 C4         -34.2450    -3.5560   -13.1780 c3         1 A1I       0.204800
     60 O2         -37.9650    -0.8270   -12.6140 o          1 A1I      -0.733500
@<TRIPOS>BOND
     1     1    10 1   
     2     1    11 1   
     3     1    29 1   
     4     1    30 1   
     5     2     7 1   
     6     2     9 1   
     7     2    31 1   
     8     2    32 1   
     9     3     6 1   
    10     3    11 1   
    11     3    12 1   
    12     3    33 1   
    13     4    19 1   
    14     4    20 ar  
    15     4    24 ar  
    16     5    20 1   
    17     5    34 1   
    18     5    35 1   
    19     6    58 1   
    20     6    60 1   
    21     7    38 1   
    22     7    39 1   
    23     7    59 1   
    24     8     9 1   
    25     8    40 1   
    26     8    41 1   
    27     8    42 1   
    28     9    43 1   
    29    10    13 1   
    30    10    59 1   
    31    11    44 1   
    32    11    45 1   
    33    12    46 1   
    34    12    47 1   
    35    13    14 1   
    36    13    48 1   
    37    13    49 1   
    38    14    15 1   
    39    14    27 1   
    40    14    50 1   
    41    15    16 1   
    42    16    17 1   
    43    16    25 1   
    44    16    51 1   
    45    17    18 1   
    46    17    24 1   
    47    18    19 2   
    48    18    52 1   
    49    20    21 ar  
    50    21    22 ar  
    51    22    23 ar  
    52    22    53 1   
    53    23    24 ar  
    54    25    26 1   
    55    25    27 1   
    56    25    54 1   
    57    26    55 1   
    58    27    28 1   
    59    27    56 1   
    60    28    57 1   
    61    36    59 1   
    62    37    59 1   
@<TRIPOS>SUBSTRUCTURE
     1 A1I         1 TEMP              0 ****  ****    0 ROOT
