@<TRIPOS>MOLECULE
A1I
   34    37     1     0     0
SMALL
abcg2


@<TRIPOS>ATOM
      1 C13         22.2590    10.6930   -14.2280 cc         1 A1I       0.614300
      2 C11         19.8870    14.0950   -11.5350 ca         1 A1I       0.348900
      3 C14         26.5820     8.5690   -13.7040 cc         1 A1I       0.295900
      4 N           27.2510     9.8240   -12.1460 na         1 A1I       0.112100
      5 N5          27.6040     8.7850   -12.9100 nd         1 A1I      -0.484800
      6 C2          25.5400     9.4880   -13.4550 cc         1 A1I      -0.255000
      7 C1          26.0340    10.2810   -12.4280 cc         1 A1I      -0.008300
      8 C3          24.2560     9.6140   -14.0910 cd         1 A1I       0.477000
      9 N4          23.4420    10.5610   -13.6560 nd         1 A1I      -0.675000
     10 N1          21.8640     9.8690   -15.2460 na         1 A1I      -0.059500
     11 C5          22.6600     8.8860   -15.7300 cc         1 A1I      -0.057000
     12 C4          23.8780     8.7460   -15.1560 cd         1 A1I      -0.151000
     13 C7          21.1890    11.5840   -13.9810 cc         1 A1I      -0.199000
     14 C6          20.2100    11.2280   -14.8810 cd         1 A1I      -0.047100
     15 N2          20.6300    10.2030   -15.6270 na         1 A1I      -0.229900
     16 C8          21.1270    12.6510   -12.9870 ca         1 A1I      -0.007800
     17 C12         19.9060    13.0630   -12.4570 ca         1 A1I      -0.145000
     18 N3          20.9770    14.7240   -11.1110 nb         1 A1I      -0.630000
     19 C10         22.1400    14.3270   -11.6130 ca         1 A1I       0.348900
     20 C9          22.2720    13.3080   -12.5430 ca         1 A1I      -0.145000
     21 H1          18.9420    14.4230   -11.1160 h4         1 A1I       0.035100
     22 H2          26.6180     7.7670   -14.4270 h4         1 A1I       0.051100
     23 H3          29.0830    10.6770   -11.6330 h1         1 A1I       0.077033
     24 H4          27.7070    11.1530   -10.6230 h1         1 A1I       0.077033
     25 H5          28.4180     9.5400   -10.4430 h1         1 A1I       0.077033
     26 H6          25.5970    11.1170   -11.9050 h4         1 A1I       0.181000
     27 H7          22.2790     8.2780   -16.5380 h4         1 A1I       0.181000
     28 H8          24.5380     7.9740   -15.5210 ha         1 A1I       0.178000
     29 H9          19.2330    11.6500   -15.0530 h4         1 A1I       0.272000
     30 H10         20.1600     9.7260   -16.3860 hn         1 A1I       0.422000
     31 H11         18.9760    12.5860   -12.7400 ha         1 A1I       0.127000
     32 H12         23.0240    14.8480   -11.2620 h4         1 A1I       0.035100
     33 H13         23.2530    13.0490   -12.9150 ha         1 A1I       0.127000
     34 C           28.1720    10.3270   -11.1520 c3         1 A1I       0.056900
@<TRIPOS>BOND
     1     1     9 2   
     2     1    10 1   
     3     1    13 1   
     4     2    17 ar  
     5     2    18 ar  
     6     2    21 1   
     7     3     5 2   
     8     3     6 1   
     9     3    22 1   
    10     4     5 1   
    11     4     7 2   
    12     4    34 1   
    13     6     7 1   
    14     6     8 2   
    15     7    26 1   
    16     8     9 1   
    17     8    12 1   
    18    10    11 1   
    19    10    15 1   
    20    11    12 2   
    21    11    27 1   
    22    12    28 1   
    23    13    14 2   
    24    13    16 1   
    25    14    15 1   
    26    14    29 1   
    27    15    30 1   
    28    16    17 ar  
    29    16    20 ar  
    30    17    31 1   
    31    18    19 ar  
    32    19    20 ar  
    33    19    32 1   
    34    20    33 1   
    35    23    34 1   
    36    24    34 1   
    37    25    34 1   
@<TRIPOS>SUBSTRUCTURE
     1 A1I         1 TEMP              0 ****  ****    0 ROOT
