@<TRIPOS>MOLECULE
A1I
   49    51     1     0     0
SMALL
abcg2


@<TRIPOS>ATOM
      1 C1          -0.6690    -4.5680     5.6750 c5         1 A1I      -0.068400
      2 C2           0.1160    -3.8230     4.5970 c5         1 A1I      -0.106400
      3 C3           0.9920    -2.8720     5.4050 c5         1 A1I       0.172300
      4 C7          -0.3790     0.4810     3.1660 ca         1 A1I      -0.063500
      5 C8          -1.2760     1.3520     3.7620 ca         1 A1I      -0.091000
      6 C9          -1.6570     1.1320     5.0800 ca         1 A1I      -0.063500
      7 C10         -1.1460     0.0610     5.7890 ca         1 A1I      -0.171000
      8 C11         -1.2360     3.7650     3.4780 c3         1 A1I       0.162300
      9 C12          0.2350     3.9010     3.1780 ca         1 A1I      -0.104300
     10 C13          0.7140     3.7710     1.8770 ca         1 A1I      -0.086500
     11 C14          2.0650     3.8960     1.5980 ca         1 A1I      -0.104500
     12 C15          2.9470     4.1540     2.6370 ca         1 A1I       0.124000
     13 C16          2.4990     4.2860     3.9400 ca         1 A1I      -0.104500
     14 C19         -3.2030     3.4550     1.3290 ce         1 A1I      -0.299200
     15 C20         -4.3940     3.4740     0.7400 c2         1 A1I      -0.235000
     16 O1          -3.3090     1.1990     2.0230 o          1 A1I      -0.581100
     17 C18         -2.7800     2.2910     2.1560 c          1 A1I       0.608300
     18 N1          -1.7700     2.4810     3.0500 n          1 A1I      -0.241400
     19 C17          1.1410     4.1550     4.1990 ca         1 A1I      -0.086500
     20 CL           4.6400     4.3110     2.2980 cl         1 A1I      -0.204000
     21 C6           0.1360    -0.6040     3.8640 ca         1 A1I      -0.171000
     22 C5          -0.2400    -0.8180     5.1900 ca         1 A1I       0.154100
     23 O            0.2220    -1.8100     5.9710 os         1 A1I      -0.353100
     24 C4           1.4590    -3.7440     6.5630 c5         1 A1I      -0.080400
     25 C            0.3240    -4.7550     6.8400 c5         1 A1I       0.157500
     26 N            0.8590    -6.1120     6.8330 n8         1 A1I      -0.999200
     27 H1          -1.5240    -3.9700     5.9980 hc         1 A1I       0.051200
     28 H2          -1.0630    -5.5220     5.3230 hc         1 A1I       0.051200
     29 H3          -0.5150    -3.3320     3.8550 hc         1 A1I       0.060200
     30 H4           0.7730    -4.5120     4.0600 hc         1 A1I       0.060200
     31 H5           1.8340    -2.4610     4.8380 h1         1 A1I       0.054700
     32 H6          -0.0700     0.6460     2.1420 ha         1 A1I       0.118000
     33 H7          -2.3630     1.8000     5.5580 ha         1 A1I       0.118000
     34 H8          -1.4490    -0.1070     6.8150 ha         1 A1I       0.122500
     35 H9          -1.3980     3.8740     4.5530 h1         1 A1I       0.055700
     36 H10         -1.7960     4.5740     3.0130 h1         1 A1I       0.055700
     37 H11          0.0300     3.5650     1.0620 ha         1 A1I       0.119000
     38 H12          2.4250     3.7940     0.5830 ha         1 A1I       0.130500
     39 H13          3.1930     4.4820     4.7460 ha         1 A1I       0.130500
     40 H14         -2.5230     4.2830     1.1770 ha         1 A1I       0.181000
     41 H16         -4.6950     4.3080     0.1210 ha         1 A1I       0.175500
     42 H17         -5.1070     2.6690     0.8590 ha         1 A1I       0.175500
     43 H19          0.7880     4.2500     5.2190 ha         1 A1I       0.119000
     44 H20          0.8310    -1.2600     3.3600 ha         1 A1I       0.122500
     45 H21          2.3480    -4.2900     6.2390 hc         1 A1I       0.062200
     46 H22          1.7420    -3.1550     7.4360 hc         1 A1I       0.062200
     47 H23         -0.1690    -4.5080     7.7890 h1         1 A1I       0.027700
     48 H24          1.5530    -6.2050     7.5660 hn         1 A1I       0.392000
     49 H25          0.1230    -6.7630     7.0780 hn         1 A1I       0.392000
@<TRIPOS>BOND
     1     1     2 1   
     2     1    25 1   
     3     1    27 1   
     4     1    28 1   
     5     2     3 1   
     6     2    29 1   
     7     2    30 1   
     8     3    23 1   
     9     3    24 1   
    10     3    31 1   
    11     4     5 ar  
    12     4    21 ar  
    13     4    32 1   
    14     5     6 ar  
    15     5    18 1   
    16     6     7 ar  
    17     6    33 1   
    18     7    22 ar  
    19     7    34 1   
    20     8     9 1   
    21     8    18 1   
    22     8    35 1   
    23     8    36 1   
    24     9    10 ar  
    25     9    19 ar  
    26    10    11 ar  
    27    10    37 1   
    28    11    12 ar  
    29    11    38 1   
    30    12    13 ar  
    31    12    20 1   
    32    13    19 ar  
    33    13    39 1   
    34    14    15 2   
    35    14    17 1   
    36    14    40 1   
    37    15    41 1   
    38    15    42 1   
    39    16    17 2   
    40    17    18 1   
    41    19    43 1   
    42    21    22 ar  
    43    21    44 1   
    44    22    23 1   
    45    24    25 1   
    46    24    45 1   
    47    24    46 1   
    48    25    26 1   
    49    25    47 1   
    50    26    48 1   
    51    26    49 1   
@<TRIPOS>SUBSTRUCTURE
     1 A1I         1 TEMP              0 ****  ****    0 ROOT
