@<TRIPOS>MOLECULE
A1I
   58    60     1     0     0
SMALL
abcg2


@<TRIPOS>ATOM
      1 C1         -11.5490     6.7030    11.0240 c3         1 A1I       0.154000
      2 C2         -13.5600     7.9390    10.3520 c          1 A1I       0.615100
      3 C3         -14.2000     9.2440     9.9310 c3         1 A1I      -0.153400
      4 C7         -10.4650    11.0530    11.6000 ca         1 A1I      -0.174000
      5 C8          -9.7480    11.3600    10.4440 ca         1 A1I       0.162100
      6 C9          -8.5730    13.1680    11.4740 c5         1 A1I       0.174300
      7 C10         -9.6650    14.1810    11.8890 c5         1 A1I      -0.094400
      8 C11         -8.9970    15.5600    11.8090 c5         1 A1I      -0.072400
      9 C12         -7.5060    15.2700    11.9760 c5         1 A1I       0.154500
     10 C13         -7.3400    14.0070    11.1400 c5         1 A1I      -0.074400
     11 C14         -9.8960    10.5460     9.3170 ca         1 A1I      -0.174000
     12 C15        -10.7210     9.4390     9.3560 ca         1 A1I      -0.073000
     13 C16        -11.0220     6.9000    12.4290 ca         1 A1I      -0.071300
     14 C19        -10.1780     7.4120    15.0590 ca         1 A1I      -0.166300
     15 C20         -9.3250     7.6480    13.9740 ca         1 A1I       0.030000
     16 C21         -9.7450     7.3880    12.6740 ca         1 A1I      -0.064000
     17 C22         -8.0100     8.1770    14.1560 cg         1 A1I       0.309000
     18 F2          -8.6230     7.0040    16.7680 f          1 A1I      -0.107000
     19 C23         -9.7160     7.7120    16.4540 c3         1 A1I       0.360300
     20 F          -10.6440     7.4380    17.3670 f          1 A1I      -0.107000
     21 F1          -9.3940     9.0050    16.5900 f          1 A1I      -0.107000
     22 C18        -11.4420     6.9070    14.8150 ca         1 A1I      -0.069000
     23 C17        -11.8550     6.6590    13.5130 ca         1 A1I      -0.087000
     24 N2          -6.9490     8.6090    14.2670 n1         1 A1I      -0.421000
     25 C          -10.5030     6.2260    10.0270 c3         1 A1I      -0.101100
     26 N          -12.2160     7.9380    10.5820 n          1 A1I      -0.241400
     27 C4         -14.8900     9.9200    11.1160 c3         1 A1I      -0.083100
     28 O          -14.2430     6.9370    10.4980 o          1 A1I      -0.605100
     29 C5         -11.4220     9.1160    10.5150 ca         1 A1I      -0.108000
     30 C6         -11.2880     9.9360    11.6260 ca         1 A1I      -0.073000
     31 O1          -8.9050    12.3960    10.3230 os         1 A1I      -0.348100
     32 N1          -7.2240    14.9630    13.3720 n8         1 A1I      -1.003200
     33 H1         -12.3310     5.9470    11.0740 h1         1 A1I       0.095700
     34 H2         -13.4890     9.9310     9.4760 hc         1 A1I       0.067200
     35 H3         -14.9440     9.0020     9.1710 hc         1 A1I       0.067200
     36 H4         -10.3970    11.6640    12.4900 ha         1 A1I       0.130000
     37 H5          -8.3520    12.4860    12.3010 h1         1 A1I       0.063700
     38 H6         -10.0060    13.9720    12.9030 hc         1 A1I       0.054700
     39 H7         -10.5410    14.1140    11.2410 hc         1 A1I       0.054700
     40 H8          -9.3780    16.2610    12.5540 hc         1 A1I       0.047200
     41 H9          -9.1650    16.0090    10.8280 hc         1 A1I       0.047200
     42 H10         -6.8930    16.0900    11.5800 h1         1 A1I       0.031700
     43 H11         -7.3590    14.2750    10.0800 hc         1 A1I       0.059700
     44 H12         -6.4030    13.4800    11.3310 hc         1 A1I       0.059700
     45 H13         -9.3510    10.7870     8.4120 ha         1 A1I       0.130000
     46 H14        -10.8230     8.8170     8.4750 ha         1 A1I       0.122000
     47 H15         -9.0610     7.5900    11.8600 ha         1 A1I       0.137000
     48 H16        -12.1240     6.7040    15.6280 ha         1 A1I       0.139000
     49 H17        -12.8540     6.2760    13.3450 ha         1 A1I       0.136000
     50 H18        -10.0630     5.2900    10.3710 hc         1 A1I       0.047033
     51 H19        -10.9700     6.0440     9.0600 hc         1 A1I       0.047033
     52 H20         -9.6950     6.9410     9.8800 hc         1 A1I       0.047033
     53 H21        -15.4070    10.8200    10.7860 hc         1 A1I       0.040700
     54 H22        -15.6260     9.2590    11.5730 hc         1 A1I       0.040700
     55 H23        -14.1740    10.2120    11.8840 hc         1 A1I       0.040700
     56 H24        -11.8310     9.7040    12.5340 ha         1 A1I       0.122000
     57 H25         -6.2450    14.7270    13.4780 hn         1 A1I       0.396500
     58 H26         -7.3730    15.7890    13.9400 hn         1 A1I       0.396500
@<TRIPOS>BOND
     1     1    13 1   
     2     1    25 1   
     3     1    26 1   
     4     1    33 1   
     5     2     3 1   
     6     2    26 1   
     7     2    28 2   
     8     3    27 1   
     9     3    34 1   
    10     3    35 1   
    11     4     5 ar  
    12     4    30 ar  
    13     4    36 1   
    14     5    11 ar  
    15     5    31 1   
    16     6     7 1   
    17     6    10 1   
    18     6    31 1   
    19     6    37 1   
    20     7     8 1   
    21     7    38 1   
    22     7    39 1   
    23     8     9 1   
    24     8    40 1   
    25     8    41 1   
    26     9    10 1   
    27     9    32 1   
    28     9    42 1   
    29    10    43 1   
    30    10    44 1   
    31    11    12 ar  
    32    11    45 1   
    33    12    29 ar  
    34    12    46 1   
    35    13    16 ar  
    36    13    23 ar  
    37    14    15 ar  
    38    14    19 1   
    39    14    22 ar  
    40    15    16 ar  
    41    15    17 1   
    42    16    47 1   
    43    17    24 3   
    44    18    19 1   
    45    19    20 1   
    46    19    21 1   
    47    22    23 ar  
    48    22    48 1   
    49    23    49 1   
    50    25    50 1   
    51    25    51 1   
    52    25    52 1   
    53    26    29 1   
    54    27    53 1   
    55    27    54 1   
    56    27    55 1   
    57    29    30 ar  
    58    30    56 1   
    59    32    57 1   
    60    32    58 1   
@<TRIPOS>SUBSTRUCTURE
     1 A1I         1 TEMP              0 ****  ****    0 ROOT
