@<TRIPOS>MOLECULE
A1I
   60    61     1     0     0
SMALL
abcg2


@<TRIPOS>ATOM
      1 O28         27.1250    18.4580    18.5260 o          1 A1I      -0.508000
      2 S26         27.2070    19.0930    19.8310 sy         1 A1I       1.031500
      3 O27         27.1030    20.5490    19.8760 o          1 A1I      -0.508000
      4 C29         28.7340    18.6130    20.6340 c3         1 A1I      -0.285400
      5 C30         28.9790    17.1180    20.6630 c3         1 A1I      -0.070100
      6 C10         25.9270    18.3960    20.9050 ca         1 A1I      -0.247500
      7 C11         25.4620    17.1110    20.6420 ca         1 A1I       0.185000
      8 F15         25.9270    16.3810    19.6370 f          1 A1I      -0.130000
      9 C12         24.5100    16.5260    21.4480 ca         1 A1I       0.219000
     10 F13         24.1030    15.2990    21.1590 f          1 A1I      -0.134000
     11 C7          23.9660    17.2100    22.5240 ca         1 A1I      -0.288500
     12 S1          22.6880    16.3950    23.4890 sy         1 A1I       1.175600
     13 O3          22.2000    17.3330    24.4740 o          1 A1I      -0.526500
     14 N4          21.5600    16.1220    22.3390 n8         1 A1I      -1.049100
     15 O2          23.2280    15.1160    23.9040 o          1 A1I      -0.526500
     16 C9          25.4080    19.1190    21.9920 ca         1 A1I       0.290000
     17 C8          24.4310    18.4890    22.7760 ca         1 A1I       0.270000
     18 F14         23.9290    19.1830    23.7820 f          1 A1I      -0.120000
     19 N16         25.7180    20.4370    22.3270 nu         1 A1I      -0.931200
     20 C18         26.8100    20.7390    23.2730 c3         1 A1I       0.210500
     21 C25         26.6400    22.1950    23.7180 c3         1 A1I      -0.064400
     22 C24         25.2820    22.4930    24.3770 c3         1 A1I      -0.040200
     23 C23         25.3230    23.6740    25.3000 c2         1 A1I      -0.221200
     24 C22         25.3580    23.6060    26.6320 c2         1 A1I      -0.215200
     25 C21         25.4010    22.3250    27.4200 c3         1 A1I      -0.044200
     26 C20         26.8020    21.7060    27.4030 c3         1 A1I      -0.079400
     27 C36         26.8650    20.2750    27.9230 c3         1 A1I      -0.072400
     28 C33         28.2220    19.6060    27.6820 c3         1 A1I      -0.071400
     29 C37         28.4260    18.9010    26.3360 c3         1 A1I      -0.071400
     30 C35         28.3180    19.7490    25.0620 c3         1 A1I      -0.070400
     31 C19         26.9180    19.7620    24.4450 c3         1 A1I      -0.091400
     32 H1          29.5010    19.1390    20.0580 h1         1 A1I       0.102700
     33 H2          28.7120    19.0440    21.6350 h1         1 A1I       0.102700
     34 H3          29.9650    16.9440    21.0900 hc         1 A1I       0.055033
     35 H4          28.2600    16.5940    21.2900 hc         1 A1I       0.055033
     36 H5          28.9700    16.6850    19.6650 hc         1 A1I       0.055033
     37 H6          21.2430    15.1610    22.2880 hn         1 A1I       0.498000
     38 H7          20.8040    16.7970    22.3170 hn         1 A1I       0.498000
     39 H8          25.8670    20.9850    21.4920 hn         1 A1I       0.478000
     40 H9          27.7680    20.6850    22.7340 h1         1 A1I       0.016700
     41 H10         27.4560    22.4360    24.4030 hc         1 A1I       0.048200
     42 H11         26.7800    22.8520    22.8550 hc         1 A1I       0.048200
     43 H12         24.5400    22.6660    23.5950 hc         1 A1I       0.054700
     44 H13         24.9380    21.6140    24.9220 hc         1 A1I       0.054700
     45 H14         25.3440    24.6550    24.8330 ha         1 A1I       0.166000
     46 H15         25.4090    24.5330    27.1930 ha         1 A1I       0.168000
     47 H16         25.0830    22.5020    28.4500 hc         1 A1I       0.045700
     48 H17         24.6950    21.6010    27.0040 hc         1 A1I       0.045700
     49 H18         27.1730    21.7370    26.3800 hc         1 A1I       0.039700
     50 H19         27.4890    22.3330    27.9810 hc         1 A1I       0.039700
     51 H20         26.0700    19.6760    27.4650 hc         1 A1I       0.040200
     52 H21         26.6490    20.2790    28.9960 hc         1 A1I       0.040200
     53 H22         28.3890    18.8550    28.4590 hc         1 A1I       0.037700
     54 H23         29.0150    20.3490    27.8190 hc         1 A1I       0.037700
     55 H24         27.7280    18.0590    26.2670 hc         1 A1I       0.038200
     56 H25         29.4210    18.4500    26.3660 hc         1 A1I       0.038200
     57 H26         29.0010    19.3460    24.3080 hc         1 A1I       0.036200
     58 H27         28.6750    20.7640    25.2610 hc         1 A1I       0.036200
     59 H28         26.1630    19.9770    25.2040 hc         1 A1I       0.053700
     60 H29         26.7220    18.7410    24.1080 hc         1 A1I       0.053700
@<TRIPOS>BOND
     1     1     2 2   
     2     2     3 2   
     3     2     4 1   
     4     2     6 1   
     5     4     5 1   
     6     4    32 1   
     7     4    33 1   
     8     5    34 1   
     9     5    35 1   
    10     5    36 1   
    11     6     7 ar  
    12     6    16 ar  
    13     7     8 1   
    14     7     9 ar  
    15     9    10 1   
    16     9    11 ar  
    17    11    12 1   
    18    11    17 ar  
    19    12    13 2   
    20    12    14 1   
    21    12    15 2   
    22    14    37 1   
    23    14    38 1   
    24    16    17 ar  
    25    16    19 1   
    26    17    18 1   
    27    19    20 1   
    28    19    39 1   
    29    20    21 1   
    30    20    31 1   
    31    20    40 1   
    32    21    22 1   
    33    21    41 1   
    34    21    42 1   
    35    22    23 1   
    36    22    43 1   
    37    22    44 1   
    38    23    24 2   
    39    23    45 1   
    40    24    25 1   
    41    24    46 1   
    42    25    26 1   
    43    25    47 1   
    44    25    48 1   
    45    26    27 1   
    46    26    49 1   
    47    26    50 1   
    48    27    28 1   
    49    27    51 1   
    50    27    52 1   
    51    28    29 1   
    52    28    53 1   
    53    28    54 1   
    54    29    30 1   
    55    29    55 1   
    56    29    56 1   
    57    30    31 1   
    58    30    57 1   
    59    30    58 1   
    60    31    59 1   
    61    31    60 1   
@<TRIPOS>SUBSTRUCTURE
     1 A1I         1 TEMP              0 ****  ****    0 ROOT
