@<TRIPOS>MOLECULE
A1I
   48    51     1     0     0
SMALL
abcg2


@<TRIPOS>ATOM
      1 N1          10.0170    11.0800   -11.6750 nu         1 A1I      -0.925900
      2 N3          14.3970     8.7330   -13.6080 na         1 A1I      -0.272600
      3 C4           9.2360    10.9740   -10.5540 ca         1 A1I       0.405000
      4 C5          11.1530    10.4150   -12.0780 ca         1 A1I       0.406900
      5 C6          12.8150     8.9220   -11.5970 ca         1 A1I       0.431300
      6 C7          12.9000     7.8380    -9.4850 c3         1 A1I       0.176600
      7 C8          13.8520     6.9110    -8.7600 c6         1 A1I      -0.069700
      8 C10         14.4150     5.9210    -6.5110 c6         1 A1I      -0.073400
      9 C13         14.0510     5.5740    -9.4960 c6         1 A1I      -0.068400
     10 C15         14.3230     9.3820   -14.7840 cc         1 A1I       0.441700
     11 C17          8.1570    11.8730   -10.4630 ca         1 A1I      -0.193000
     12 O1           6.3460     9.5180    -6.4710 o          1 A1I      -0.546500
     13 O2           5.1700    11.5590    -7.3400 o          1 A1I      -0.546500
     14 F1           7.1600    11.7410    -5.9870 f          1 A1I      -0.268900
     15 C1           7.4820    10.8990    -8.3920 ca         1 A1I      -0.402500
     16 C2           8.5440    10.0030    -8.4570 ca         1 A1I       0.036000
     17 C3           9.4190    10.0390    -9.5230 ca         1 A1I      -0.193000
     18 N2          11.7220     9.5550   -11.2260 nb         1 A1I      -0.319000
     19 O3          13.4280     8.0760   -10.7980 os         1 A1I      -0.462300
     20 C9          13.3510     6.6530    -7.3410 c6         1 A1I      -0.068400
     21 C11         15.2800     4.9910    -7.3730 c6         1 A1I      -0.075400
     22 C12         14.4740     4.4440    -8.5450 c6         1 A1I      -0.073400
     23 C14         13.3330     9.1660   -12.8650 ca         1 A1I      -0.260200
     24 N4          13.3030    10.2040   -14.8710 nd         1 A1I      -0.646700
     25 C16         12.6650    10.0840   -13.6750 ca         1 A1I       0.288000
     26 N5          11.5610    10.7280   -13.2930 nb         1 A1I      -0.204000
     27 C18          7.2900    11.8430    -9.3980 ca         1 A1I       0.036000
     28 H1           9.7030    11.7530   -12.3600 hn         1 A1I       0.520000
     29 H2          15.1000     8.0610   -13.3400 hn         1 A1I       0.373000
     30 H3          12.8020     8.7870    -8.9510 h1         1 A1I       0.055200
     31 H4          11.9050     7.3900    -9.5650 h1         1 A1I       0.055200
     32 H5          14.8180     7.4250    -8.6830 hc         1 A1I       0.060700
     33 H6          13.9230     5.3460    -5.7230 hc         1 A1I       0.041700
     34 H7          15.0540     6.6490    -6.0050 hc         1 A1I       0.041700
     35 H8          13.1230     5.2910   -10.0030 hc         1 A1I       0.041950
     36 H9          14.8030     5.7000   -10.2780 hc         1 A1I       0.041950
     37 H10         15.0530     9.2160   -15.5620 h5         1 A1I       0.070800
     38 H11          7.9990    12.6030   -11.2470 ha         1 A1I       0.135500
     39 H12          8.6990     9.2640    -7.6830 ha         1 A1I       0.136500
     40 H13         10.2360     9.3380    -9.5590 ha         1 A1I       0.135500
     41 H14         13.0760     7.5910    -6.8500 hc         1 A1I       0.041950
     42 H15         12.4340     6.0570    -7.3930 hc         1 A1I       0.041950
     43 H16         15.6790     4.1780    -6.7640 hc         1 A1I       0.040200
     44 H17         16.1480     5.5350    -7.7580 hc         1 A1I       0.040200
     45 H18         13.5900     3.9290    -8.1580 hc         1 A1I       0.041700
     46 H19         15.0460     3.6930    -9.0920 hc         1 A1I       0.041700
     47 H21          6.4680    12.5440    -9.3600 ha         1 A1I       0.136500
     48 S1           6.3800    10.8320    -7.0560 sy         1 A1I       1.354400
@<TRIPOS>BOND
     1     1     3 1   
     2     1     4 1   
     3     1    28 1   
     4     2    10 1   
     5     2    23 1   
     6     2    29 1   
     7     3    11 ar  
     8     3    17 ar  
     9     4    18 ar  
    10     4    26 ar  
    11     5    18 ar  
    12     5    19 1   
    13     5    23 ar  
    14     6     7 1   
    15     6    19 1   
    16     6    30 1   
    17     6    31 1   
    18     7     9 1   
    19     7    20 1   
    20     7    32 1   
    21     8    20 1   
    22     8    21 1   
    23     8    33 1   
    24     8    34 1   
    25     9    22 1   
    26     9    35 1   
    27     9    36 1   
    28    10    24 2   
    29    10    37 1   
    30    11    27 ar  
    31    11    38 1   
    32    12    48 2   
    33    13    48 2   
    34    14    48 1   
    35    15    16 ar  
    36    15    27 ar  
    37    15    48 1   
    38    16    17 ar  
    39    16    39 1   
    40    17    40 1   
    41    20    41 1   
    42    20    42 1   
    43    21    22 1   
    44    21    43 1   
    45    21    44 1   
    46    22    45 1   
    47    22    46 1   
    48    23    25 ar  
    49    24    25 1   
    50    25    26 ar  
    51    27    47 1   
@<TRIPOS>SUBSTRUCTURE
     1 A1I         1 TEMP              0 ****  ****    0 ROOT
