@<TRIPOS>MOLECULE
A1I
   52    56     1     0     0
SMALL
abcg2


@<TRIPOS>ATOM
      1 C2         -13.6070   -51.7890   -19.1340 c6         1 A1I       0.171300
      2 C3         -14.3960   -50.7150   -19.8730 c6         1 A1I      -0.092400
      3 O1         -12.2260   -51.4920   -19.0730 oh         1 A1I      -0.672000
      4 C11        -19.2730   -48.3610   -18.7230 ca         1 A1I       0.424500
      5 C14        -21.1140   -47.2420   -19.2670 cc         1 A1I      -0.171100
      6 C15        -20.4230   -46.4130   -18.4370 cd         1 A1I      -0.203200
      7 C16        -19.2300   -47.1120   -18.0720 ca         1 A1I      -0.187800
      8 C17        -18.1110   -46.8580   -17.2910 ca         1 A1I       0.046000
      9 C18        -17.1220   -47.8300   -17.1960 ca         1 A1I      -0.257500
     10 C19        -15.9300   -47.5900   -16.4020 cc         1 A1I       0.252500
     11 C20        -14.6590   -48.0750   -16.3920 cd         1 A1I      -0.194000
     12 C21        -14.0220   -47.3280   -15.3740 cd         1 A1I       0.220000
     13 C24        -12.6260   -47.4310   -14.9360 ca         1 A1I       0.302000
     14 C26        -10.5940   -48.4250   -15.2680 ca         1 A1I       0.287500
     15 C27        -10.0110   -47.7130   -14.2300 ca         1 A1I      -0.098000
     16 C28        -10.8030   -46.8210   -13.5240 ca         1 A1I      -0.090000
     17 C29        -12.1320   -46.6710   -13.8770 ca         1 A1I      -0.111000
     18 C30         -9.7640   -49.4050   -16.0550 c          1 A1I       0.510600
     19 C4         -15.8880   -51.0360   -19.8740 c6         1 A1I      -0.084400
     20 C5         -16.4340   -51.2180   -18.4630 c6         1 A1I       0.182300
     21 C6         -15.6110   -52.2330   -17.6860 c6         1 A1I      -0.084400
     22 C7         -14.1140   -51.9440   -17.7090 c6         1 A1I      -0.092400
     23 O8         -16.3620   -49.9770   -17.7390 os         1 A1I      -0.462300
     24 C9         -17.3080   -49.0560   -17.8970 ca         1 A1I       0.647300
     25 N10        -18.3520   -49.3140   -18.6480 nb         1 A1I      -0.791000
     26 N12        -20.4180   -48.4150   -19.4400 na         1 A1I      -0.324400
     27 N22        -14.8440   -46.4770   -14.8250 nc         1 A1I      -0.365300
     28 O23        -16.0290   -46.6380   -15.4580 os         1 A1I      -0.075700
     29 N25        -11.8680   -48.2870   -15.6090 nb         1 A1I      -0.665000
     30 N31        -10.4210   -50.0530   -17.0180 nt         1 A1I      -0.577000
     31 O32         -8.5800   -49.5640   -15.7960 o          1 A1I      -0.617100
     32 H3         -13.7660   -52.7450   -19.6580 h1         1 A1I       0.026700
     33 H5         -14.2110   -49.7440   -19.4040 hc         1 A1I       0.055450
     34 H4         -14.0420   -50.6360   -20.9060 hc         1 A1I       0.055450
     35 H2         -11.9010   -51.3720   -19.9710 ho         1 A1I       0.445000
     36 H13        -22.0610   -47.0940   -19.7590 h4         1 A1I       0.218000
     37 H14        -20.7250   -45.4260   -18.1240 ha         1 A1I       0.212000
     38 H15        -18.0060   -45.9110   -16.7790 ha         1 A1I       0.140000
     39 H16        -14.2200   -48.8260   -17.0220 ha         1 A1I       0.170000
     40 H17         -8.9690   -47.8540   -13.9810 ha         1 A1I       0.151000
     41 H18        -10.3890   -46.2470   -12.7060 ha         1 A1I       0.127000
     42 H19        -12.7750   -45.9840   -13.3460 ha         1 A1I       0.144000
     43 H7         -16.4500   -50.2670   -20.4070 hc         1 A1I       0.055450
     44 H6         -16.0630   -51.9710   -20.4150 hc         1 A1I       0.055450
     45 H8         -17.4740   -51.5480   -18.5020 h1         1 A1I       0.071700
     46 H10        -15.9750   -52.3030   -16.6590 hc         1 A1I       0.055450
     47 H9         -15.7990   -53.2090   -18.1440 hc         1 A1I       0.055450
     48 H11        -13.5810   -52.7570   -17.2090 hc         1 A1I       0.055450
     49 H12        -13.8910   -51.0330   -17.1450 hc         1 A1I       0.055450
     50 H1         -20.7170   -49.1930   -20.0070 hn         1 A1I       0.361000
     51 H20         -9.9480   -50.7360   -17.5860 hn         1 A1I       0.331000
     52 H21        -11.3970   -49.8870   -17.1940 hn         1 A1I       0.331000
@<TRIPOS>BOND
     1     1     2 1   
     2     1     3 1   
     3     1    22 1   
     4     1    32 1   
     5     2    19 1   
     6     2    33 1   
     7     2    34 1   
     8     3    35 1   
     9     4     7 ar  
    10     4    25 ar  
    11     4    26 1   
    12     5     6 2   
    13     5    26 1   
    14     5    36 1   
    15     6     7 1   
    16     6    37 1   
    17     7     8 ar  
    18     8     9 ar  
    19     8    38 1   
    20     9    10 1   
    21     9    24 ar  
    22    10    11 2   
    23    10    28 1   
    24    11    12 1   
    25    11    39 1   
    26    12    13 1   
    27    12    27 2   
    28    13    17 ar  
    29    13    29 ar  
    30    14    15 ar  
    31    14    18 1   
    32    14    29 ar  
    33    15    16 ar  
    34    15    40 1   
    35    16    17 ar  
    36    16    41 1   
    37    17    42 1   
    38    18    30 1   
    39    18    31 2   
    40    19    20 1   
    41    19    43 1   
    42    19    44 1   
    43    20    21 1   
    44    20    23 1   
    45    20    45 1   
    46    21    22 1   
    47    21    46 1   
    48    21    47 1   
    49    22    48 1   
    50    22    49 1   
    51    23    24 1   
    52    24    25 ar  
    53    26    50 1   
    54    27    28 1   
    55    30    51 1   
    56    30    52 1   
@<TRIPOS>SUBSTRUCTURE
     1 A1I         1 TEMP              0 ****  ****    0 ROOT
