@<TRIPOS>MOLECULE
A1I
   50    50     1     0     0
SMALL
abcg2


@<TRIPOS>ATOM
      1 C10          6.8370    -1.2820   -23.5370 c          1 A1I       0.592100
      2 N12          7.5410    -1.1140   -22.3870 ns         1 A1I      -0.140000
      3 C13          8.8860    -0.7940   -22.2150 ca         1 A1I       0.039000
      4 C15         10.6940    -0.4660   -20.6490 ca         1 A1I      -0.073000
      5 C20          9.7550    -0.4980   -23.2640 ca         1 A1I      -0.125000
      6 C21          5.1560    -3.1100   -23.9050 c3         1 A1I      -0.072700
      7 C22          3.7140    -3.5470   -23.6730 c3         1 A1I      -0.081600
      8 C01         -0.4630     1.6440   -22.0580 c3         1 A1I      -0.074100
      9 C03         -0.1760     0.0470   -23.9630 c3         1 A1I      -0.074100
     10 C04          1.6950     1.6500   -23.3310 c3         1 A1I      -0.012400
     11 C05          2.8100     0.9460   -24.0910 c3         1 A1I      -0.432700
     12 C09          5.3840    -1.6980   -23.3330 c3         1 A1I       0.061700
     13 C14          9.3740    -0.7710   -20.9060 ca         1 A1I      -0.183000
     14 C16         11.5630    -0.1730   -21.6900 ca         1 A1I       0.058000
     15 C18         11.0810    -0.1930   -22.9910 ca         1 A1I       0.154000
     16 N08          4.5230    -0.7180   -23.9390 ns         1 A1I      -0.537900
     17 O07          3.4800    -0.1060   -22.0180 o          1 A1I      -0.715100
     18 O11          7.3050    -1.1280   -24.6500 o          1 A1I      -0.541100
     19 P24          3.9790     2.1650   -24.9770 p5         1 A1I       1.274500
     20 CL17        13.2090     0.2050   -21.3530 cl         1 A1I      -0.222000
     21 CL19        12.1270     0.1680   -24.3120 cl         1 A1I      -0.200000
     22 H121         7.0320    -1.2730   -21.5300 hn         1 A1I       0.156000
     23 H151        11.0550    -0.4550   -19.6290 ha         1 A1I       0.111000
     24 H201         9.4160    -0.5000   -24.2860 ha         1 A1I       0.182000
     25 H211         5.3370    -3.0680   -24.9840 hc         1 A1I       0.070700
     26 H223         3.5410    -4.5340   -24.1030 hc         1 A1I       0.023867
     27 H221         3.4900    -3.6090   -22.6060 hc         1 A1I       0.023867
     28 H222         3.0020    -2.8580   -24.1280 hc         1 A1I       0.023867
     29 H013         0.0170     2.1570   -21.2220 hc         1 A1I       0.011033
     30 H011        -0.9020     2.4080   -22.7050 hc         1 A1I       0.011033
     31 H012        -1.2810     1.0450   -21.6530 hc         1 A1I       0.011033
     32 H021         0.9330     0.0340   -22.1410 hc         1 A1I       0.047700
     33 H033         0.4870    -0.6500   -24.4760 hc         1 A1I       0.011033
     34 H032        -1.0230    -0.5290   -23.5850 hc         1 A1I       0.011033
     35 H031        -0.5610     0.7500   -24.7070 hc         1 A1I       0.011033
     36 H042         1.2810     2.4200   -23.9900 hc         1 A1I       0.048700
     37 H041         2.1220     2.1880   -22.4790 hc         1 A1I       0.048700
     38 H051         2.3780     0.3500   -24.9030 hc         1 A1I       0.048700
     39 H091         5.1520    -1.7300   -22.2650 h1         1 A1I       0.057700
     40 H141         8.7140    -0.9970   -20.0770 ha         1 A1I       0.114000
     41 H232         5.9150    -5.1210   -23.6600 hc         1 A1I       0.023867
     42 H233         7.1650    -3.9000   -23.5180 hc         1 A1I       0.023867
     43 H231         6.0180    -4.1430   -22.1990 hc         1 A1I       0.023867
     44 H081         4.7690    -0.2890   -24.8460 hn         1 A1I       0.405500
     45 C06          3.6190     0.0090   -23.2330 c          1 A1I       0.641100
     46 O25          4.8650     1.2210   -25.8260 o          1 A1I      -0.894500
     47 O26          4.7270     2.8770   -23.8480 o          1 A1I      -0.894500
     48 O27          3.0700     3.0570   -25.8200 o          1 A1I      -0.894500
     49 C23          6.1210    -4.1180   -23.2870 c3         1 A1I      -0.081600
     50 C02          0.5330     0.7830   -22.8300 c3         1 A1I      -0.072700
@<TRIPOS>BOND
     1     1     2 1   
     2     1    12 1   
     3     1    18 2   
     4     2     3 1   
     5     2    22 1   
     6     3     5 ar  
     7     3    13 ar  
     8     4    13 ar  
     9     4    14 ar  
    10     4    23 1   
    11     5    15 ar  
    12     5    24 1   
    13     6     7 1   
    14     6    12 1   
    15     6    25 1   
    16     6    49 1   
    17     7    26 1   
    18     7    27 1   
    19     7    28 1   
    20     8    29 1   
    21     8    30 1   
    22     8    31 1   
    23     8    50 1   
    24     9    33 1   
    25     9    34 1   
    26     9    35 1   
    27     9    50 1   
    28    10    11 1   
    29    10    36 1   
    30    10    37 1   
    31    10    50 1   
    32    11    19 1   
    33    11    38 1   
    34    11    45 1   
    35    12    16 1   
    36    12    39 1   
    37    13    40 1   
    38    14    15 ar  
    39    14    20 1   
    40    15    21 1   
    41    16    44 1   
    42    16    45 1   
    43    17    45 2   
    44    19    46 1   
    45    19    47 1   
    46    19    48 1   
    47    32    50 1   
    48    41    49 1   
    49    42    49 1   
    50    43    49 1   
@<TRIPOS>SUBSTRUCTURE
     1 A1I         1 TEMP              0 ****  ****    0 ROOT
