@<TRIPOS>MOLECULE
A1I
   53    55     1     0     0
SMALL
abcg2


@<TRIPOS>ATOM
      1 C1           1.6610    81.7750   168.2220 c          1 A1I       0.597100
      2 C2           0.4300    81.3850   167.4090 c5         1 A1I       0.163500
      3 C3          -0.8110    82.1640   167.8810 c5         1 A1I      -0.085400
      4 C7           0.6950    76.8320   166.2430 ca         1 A1I       0.187300
      5 C8           0.0540    75.4790   166.2660 c3         1 A1I      -0.150400
      6 C9           1.8840    77.0420   165.5740 ca         1 A1I      -0.340000
      7 C10          2.4200    78.3460   165.6180 ca         1 A1I       0.424900
      8 C11          4.3230    77.6470   164.2810 c3         1 A1I       0.210100
      9 C12          4.2380    79.9310   165.2190 c3         1 A1I       0.239800
     10 C13          5.3780    79.8350   166.2320 c5         1 A1I      -0.074700
     11 C14          4.9570    79.2520   167.5870 c5         1 A1I      -0.067400
     12 C15          6.1380    79.4210   168.5330 c5         1 A1I      -0.282400
     13 C16          5.9460    81.2150   166.5400 c5         1 A1I      -0.285400
     14 S            6.9210    80.9830   168.0440 s6         1 A1I       1.038000
     15 O1           8.3220    80.7420   167.6990 o          1 A1I      -0.514000
     16 N4           3.5800    78.6620   164.9940 nh         1 A1I      -0.784300
     17 N2           0.0560    77.8010   166.9020 nb         1 A1I      -0.281000
     18 N3           1.7840    79.3110   166.2790 nb         1 A1I      -0.330000
     19 C6           0.6410    78.9980   166.8820 ca         1 A1I       0.419900
     20 N1           0.0210    80.0020   167.5530 nh         1 A1I      -0.798300
     21 C5          -1.2810    79.8470   168.1850 c5         1 A1I       0.235800
     22 C4          -1.4990    81.2020   168.8430 c5         1 A1I      -0.101400
     23 O            2.2740    82.8000   167.9490 o          1 A1I      -0.616100
     24 N            1.9800    80.9810   169.2490 ns         1 A1I      -0.498900
     25 C            3.0640    81.2740   170.1550 c3         1 A1I       0.088300
     26 H1           0.6650    81.6200   166.3690 h1         1 A1I       0.095700
     27 H2          -0.5590    83.1250   168.3270 hc         1 A1I       0.065200
     28 H3          -1.4550    82.3610   167.0220 hc         1 A1I       0.065200
     29 H4          -0.9530    75.5290   165.8500 hc         1 A1I       0.053367
     30 H5           0.6250    74.7490   165.6970 hc         1 A1I       0.053367
     31 H6          -0.0400    75.1210   167.2920 hc         1 A1I       0.053367
     32 H7           2.3740    76.2260   165.0670 ha         1 A1I       0.131000
     33 H8           4.7390    76.8830   164.9440 h1         1 A1I       0.041367
     34 H9           3.7020    77.1510   163.5340 h1         1 A1I       0.041367
     35 H10          5.1480    78.1190   163.7530 h1         1 A1I       0.041367
     36 H11          4.6300    80.2950   164.2670 h1         1 A1I       0.075200
     37 H12          3.5000    80.6520   165.5650 h1         1 A1I       0.075200
     38 H13          6.1780    79.2110   165.8180 hc         1 A1I       0.057700
     39 H14          4.0840    79.7900   167.9620 hc         1 A1I       0.072700
     40 H15          4.6890    78.1990   167.5090 hc         1 A1I       0.072700
     41 H16          5.8640    79.4810   169.5850 h1         1 A1I       0.105700
     42 H17          6.8830    78.6380   168.3950 h1         1 A1I       0.105700
     43 H18          6.5890    81.6310   165.7650 h1         1 A1I       0.117700
     44 H19          5.1490    81.9240   166.7740 h1         1 A1I       0.117700
     45 H20         -2.0570    79.6370   167.4420 h1         1 A1I       0.057200
     46 H21         -1.2770    79.0240   168.9000 h1         1 A1I       0.057200
     47 H22         -1.0220    81.2310   169.8250 hc         1 A1I       0.057200
     48 H23         -2.5560    81.4260   168.9830 hc         1 A1I       0.057200
     49 H24          1.4300    80.1530   169.4060 hn         1 A1I       0.326500
     50 H25          3.3140    80.3700   170.7050 h1         1 A1I       0.041700
     51 H26          3.9510    81.6020   169.6160 h1         1 A1I       0.041700
     52 H27          2.7970    82.0510   170.8750 h1         1 A1I       0.041700
     53 O2           6.6280    82.0450   169.0080 o          1 A1I      -0.514000
@<TRIPOS>BOND
     1     1     2 1   
     2     1    23 2   
     3     1    24 1   
     4     2     3 1   
     5     2    20 1   
     6     2    26 1   
     7     3    22 1   
     8     3    27 1   
     9     3    28 1   
    10     4     5 1   
    11     4     6 ar  
    12     4    17 ar  
    13     5    29 1   
    14     5    30 1   
    15     5    31 1   
    16     6     7 ar  
    17     6    32 1   
    18     7    16 1   
    19     7    18 ar  
    20     8    16 1   
    21     8    33 1   
    22     8    34 1   
    23     8    35 1   
    24     9    10 1   
    25     9    16 1   
    26     9    36 1   
    27     9    37 1   
    28    10    11 1   
    29    10    13 1   
    30    10    38 1   
    31    11    12 1   
    32    11    39 1   
    33    11    40 1   
    34    12    14 1   
    35    12    41 1   
    36    12    42 1   
    37    13    14 1   
    38    13    43 1   
    39    13    44 1   
    40    14    15 2   
    41    14    53 2   
    42    17    19 ar  
    43    18    19 ar  
    44    19    20 1   
    45    20    21 1   
    46    21    22 1   
    47    21    45 1   
    48    21    46 1   
    49    22    47 1   
    50    22    48 1   
    51    24    25 1   
    52    24    49 1   
    53    25    50 1   
    54    25    51 1   
    55    25    52 1   
@<TRIPOS>SUBSTRUCTURE
     1 A1I         1 TEMP              0 ****  ****    0 ROOT
