@<TRIPOS>MOLECULE
A1I
   56    60     1     0     0
SMALL
abcg2


@<TRIPOS>ATOM
      1 C4           3.3490     4.8460    59.1600 ca         1 A1I      -0.084300
      2 C14          5.9030     6.4780    57.2080 cc         1 A1I       0.101900
      3 C5           4.3140     5.6980    58.5830 ca         1 A1I      -0.071000
      4 C6           4.6890     6.9260    59.0600 cc         1 A1I      -0.166300
      5 C7           3.1740     3.6370    58.5510 ca         1 A1I      -0.093000
      6 C8           3.9100     3.3000    57.3710 ca         1 A1I      -0.140000
      7 C9           4.8210     4.1280    56.7660 ca         1 A1I      -0.075600
      8 C10          5.0650     5.3870    57.4070 ca         1 A1I      -0.076000
      9 C13          5.4430     3.7150    55.4430 c          1 A1I       0.720600
     10 N1           5.6410     7.4020    58.2020 na         1 A1I       0.048400
     11 N2           6.8180     6.7330    56.1990 nu         1 A1I      -0.808000
     12 C3           2.5770     5.4240    60.3270 c6         1 A1I      -0.015700
     13 C1           4.0870     7.5340    60.2750 c6         1 A1I       0.025800
     14 C2           3.4810     6.4070    61.1260 c6         1 A1I       0.189300
     15 O1           4.5650     5.7460    61.7410 oh         1 A1I      -0.648000
     16 O2           5.9440     4.6290    54.7380 o          1 A1I      -0.718500
     17 O3           5.3860     2.5150    55.1300 o          1 A1I      -0.718500
     18 C15          6.2530     8.6770    58.2880 ca         1 A1I      -0.024200
     19 C16          6.0870     9.5980    57.2610 ca         1 A1I      -0.056500
     20 C17          6.6800    10.8450    57.3370 ca         1 A1I      -0.177000
     21 C18          7.4370    11.1930    58.4550 ca         1 A1I       0.129100
     22 C19          7.6000    10.2710    59.4870 ca         1 A1I      -0.177000
     23 C20          7.0150     9.0170    59.3960 ca         1 A1I      -0.056500
     24 C21          8.1970     6.7540    56.4560 ca         1 A1I       0.283000
     25 C22          9.0640     6.9830    55.3830 ca         1 A1I      -0.121000
     26 C23         10.4360     7.0170    55.5570 ca         1 A1I      -0.148000
     27 C24         10.9890     6.8430    56.8250 ca         1 A1I       0.075100
     28 C25         10.1370     6.6240    57.9000 ca         1 A1I      -0.148000
     29 C26          8.7600     6.5720    57.7160 ca         1 A1I      -0.121000
     30 O5          12.3380     6.8990    56.9440 oh         1 A1I      -0.551100
     31 H1           0.8420     6.7180    60.5750 hc         1 A1I       0.029867
     32 H2           1.6750     6.9550    59.0360 hc         1 A1I       0.029867
     33 H3           0.6760     5.5280    59.2830 hc         1 A1I       0.029867
     34 H4           2.4560     2.9180    58.9270 ha         1 A1I       0.085000
     35 H5           3.7110     2.3400    56.9140 ha         1 A1I       0.123000
     36 H6           1.5500     4.7850    62.1290 hc         1 A1I       0.029867
     37 H7           1.3100     3.7120    60.7610 hc         1 A1I       0.029867
     38 H8           2.8330     3.6720    61.6260 hc         1 A1I       0.029867
     39 H9           6.5710     6.1170    55.4130 hn         1 A1I       0.556000
     40 H10          4.8110     8.0770    60.8870 hc         1 A1I       0.041700
     41 H11          3.3070     8.2580    60.0200 hc         1 A1I       0.041700
     42 H12          2.8370     6.8760    61.8860 h1         1 A1I       0.006700
     43 H13          4.2210     5.1390    62.4030 ho         1 A1I       0.431000
     44 H15          8.4740    12.5600    59.3000 ho         1 A1I       0.458000
     45 H16          5.4900     9.3400    56.3960 ha         1 A1I       0.135500
     46 H17          6.5480    11.5590    56.5340 ha         1 A1I       0.115500
     47 H18          8.1910    10.5250    60.3590 ha         1 A1I       0.115500
     48 H19          7.1630     8.2990    60.1920 ha         1 A1I       0.135500
     49 H20          8.6530     7.1350    54.3920 ha         1 A1I       0.123000
     50 H21         11.0840     7.1890    54.7070 ha         1 A1I       0.104000
     51 H22         10.5410     6.4810    58.8970 ha         1 A1I       0.104000
     52 H23          8.1320     6.3760    58.5760 ha         1 A1I       0.123000
     53 H24         12.5960     6.7450    57.8590 ho         1 A1I       0.448000
     54 C11          1.3780     6.2060    59.7710 c3         1 A1I      -0.081600
     55 C12          2.0470     4.3380    61.2650 c3         1 A1I      -0.081600
     56 O4           7.9810    12.4230    58.4820 oh         1 A1I      -0.540100
@<TRIPOS>BOND
     1     1     3 ar  
     2     1     5 ar  
     3     1    12 1   
     4     2     8 2   
     5     2    10 1   
     6     2    11 1   
     7     3     4 2   
     8     3     8 ar  
     9     4    10 1   
    10     4    13 1   
    11     5     6 ar  
    12     5    34 1   
    13     6     7 ar  
    14     6    35 1   
    15     7     8 ar  
    16     7     9 1   
    17     9    16 1   
    18     9    17 1   
    19    10    18 1   
    20    11    24 1   
    21    11    39 1   
    22    12    14 1   
    23    12    54 1   
    24    12    55 1   
    25    13    14 1   
    26    13    40 1   
    27    13    41 1   
    28    14    15 1   
    29    14    42 1   
    30    15    43 1   
    31    18    19 ar  
    32    18    23 ar  
    33    19    20 ar  
    34    19    45 1   
    35    20    21 ar  
    36    20    46 1   
    37    21    22 ar  
    38    21    56 1   
    39    22    23 ar  
    40    22    47 1   
    41    23    48 1   
    42    24    25 ar  
    43    24    29 ar  
    44    25    26 ar  
    45    25    49 1   
    46    26    27 ar  
    47    26    50 1   
    48    27    28 ar  
    49    27    30 1   
    50    28    29 ar  
    51    28    51 1   
    52    29    52 1   
    53    30    53 1   
    54    31    54 1   
    55    32    54 1   
    56    33    54 1   
    57    36    55 1   
    58    37    55 1   
    59    38    55 1   
    60    44    56 1   
@<TRIPOS>SUBSTRUCTURE
     1 A1I         1 TEMP              0 ****  ****    0 ROOT
