@<TRIPOS>MOLECULE
A1I
   28    27     1     0     0
SMALL
abcg2


@<TRIPOS>ATOM
      1 C1         166.3120   145.3340    81.4600 c3         1 A1I      -0.085100
      2 C2         166.0210   146.3510    82.5560 c3         1 A1I      -0.076400
      3 C3         166.7520   146.0460    83.8580 c3         1 A1I      -0.038400
      4 C4         166.5000   147.0820    84.9500 c3         1 A1I      -0.430400
      5 C7         167.0680   148.1630    87.5660 c3         1 A1I      -0.440400
      6 C8         165.6060   148.4210    87.9170 c3         1 A1I      -0.038400
      7 C9         165.4150   149.4830    88.9920 c3         1 A1I       0.149800
      8 N10        165.8970   150.7880    88.5570 n8         1 A1I      -0.997200
      9 O11        168.8540   146.5780    86.2500 o          1 A1I      -0.829500
     10 O6         166.6660   145.4870    87.1750 o          1 A1I      -0.829500
     11 P5         167.3640   146.6700    86.5270 p5         1 A1I       1.403000
     12 H1         165.7830   145.5760    80.5370 hc         1 A1I       0.018700
     13 H2         167.3790   145.2990    81.2300 hc         1 A1I       0.018700
     14 H3         166.0090   144.3300    81.7620 hc         1 A1I       0.018700
     15 H4         166.3010   147.3510    82.2100 hc         1 A1I       0.024700
     16 H5         164.9430   146.3880    82.7450 hc         1 A1I       0.024700
     17 H6         166.4490   145.0560    84.2160 hc         1 A1I       0.042700
     18 H7         167.8260   145.9810    83.6600 hc         1 A1I       0.042700
     19 H8         166.8340   148.0660    84.6030 hc         1 A1I       0.035200
     20 H9         165.4250   147.1700    85.1350 hc         1 A1I       0.035200
     21 H10        167.6450   148.0150    88.4870 hc         1 A1I       0.043200
     22 H11        167.5070   149.0290    87.0620 hc         1 A1I       0.043200
     23 H12        165.0500   148.7170    87.0220 hc         1 A1I       0.042700
     24 H13        165.1520   147.4930    88.2730 hc         1 A1I       0.042700
     25 H14        164.3490   149.5750    89.2130 h1         1 A1I       0.010200
     26 H15        165.8930   149.1300    89.9180 h1         1 A1I       0.010200
     27 H16        165.7050   151.4720    89.2770 hn         1 A1I       0.380000
     28 H17        166.9060   150.7630    88.4740 hn         1 A1I       0.380000
@<TRIPOS>BOND
     1     1     2 1   
     2     1    12 1   
     3     1    13 1   
     4     1    14 1   
     5     2     3 1   
     6     2    15 1   
     7     2    16 1   
     8     3     4 1   
     9     3    17 1   
    10     3    18 1   
    11     4    11 1   
    12     4    19 1   
    13     4    20 1   
    14     5     6 1   
    15     5    11 1   
    16     5    21 1   
    17     5    22 1   
    18     6     7 1   
    19     6    23 1   
    20     6    24 1   
    21     7     8 1   
    22     7    25 1   
    23     7    26 1   
    24     8    27 1   
    25     8    28 1   
    26     9    11 1   
    27    10    11 1   
@<TRIPOS>SUBSTRUCTURE
     1 A1I         1 TEMP              0 ****  ****    0 ROOT
