@<TRIPOS>MOLECULE
A1I
   56    61     1     0     0
SMALL
abcg2


@<TRIPOS>ATOM
      1 N3          -3.3800   -28.2590   -21.3780 ns         1 A1I      -0.238900
      2 C5          -4.2330   -27.3740   -23.2740 cc         1 A1I       0.371900
      3 C6          -3.9840   -26.5990   -24.5360 c3         1 A1I      -0.051400
      4 C7          -4.5060   -25.1840   -24.4490 ca         1 A1I      -0.099300
      5 C8          -5.3760   -24.6740   -25.4060 ca         1 A1I      -0.071000
      6 C10         -5.4370   -22.5850   -24.2730 ca         1 A1I       0.197000
      7 C15         -2.3880   -21.1690   -23.4900 c6         1 A1I       0.088000
      8 C17         -0.6780   -22.9890   -23.0270 c3         1 A1I      -0.104100
      9 C20         -2.8030   -20.4670   -21.1870 c6         1 A1I       0.068700
     10 C24          1.9950   -20.5440   -22.3730 cc         1 A1I       0.373400
     11 C26          3.4540   -21.2270   -23.8570 cd         1 A1I       0.276900
     12 C2          -4.5450   -28.7070   -20.8290 c          1 A1I       0.556600
     13 N4          -3.2080   -27.6130   -22.5350 nd         1 A1I      -0.429300
     14 C9          -5.8500   -23.3710   -25.3270 ca         1 A1I      -0.151000
     15 F11         -5.8770   -21.3210   -24.1730 f          1 A1I      -0.169000
     16 C12         -4.5610   -23.0500   -23.3090 ca         1 A1I      -0.186600
     17 N14         -3.1560   -21.3560   -22.2760 n          1 A1I      -0.412800
     18 C16         -0.9200   -21.5070   -23.2560 c6         1 A1I       0.081300
     19 N18         -0.4900   -20.7230   -22.0990 na         1 A1I      -0.331000
     20 C19         -1.3270   -20.2710   -21.1410 cc         1 A1I       0.366800
     21 N21         -0.6610   -19.6310   -20.2180 nd         1 A1I      -0.346000
     22 N22          0.6380   -19.6600   -20.5670 nd         1 A1I      -0.354000
     23 C23          0.7410   -20.3190   -21.6910 cc         1 A1I       0.343500
     24 N25          2.1460   -21.1990   -23.4810 nd         1 A1I      -0.656000
     25 C27          4.3130   -20.5860   -23.0220 cc         1 A1I      -0.289000
     26 S28          3.4560   -19.9110   -21.7050 ss         1 A1I       0.099600
     27 O29         -4.8620   -22.2680   -21.1070 o          1 A1I      -0.562100
     28 C30         -4.1080   -24.3580   -23.4020 ca         1 A1I      -0.044000
     29 C31         -5.5640   -27.7980   -22.8930 ca         1 A1I      -0.113900
     30 C32         -6.6940   -27.5810   -23.6910 ca         1 A1I      -0.099000
     31 C33         -7.9350   -28.0070   -23.2670 ca         1 A1I      -0.083000
     32 C34         -8.0820   -28.6600   -22.0410 ca         1 A1I      -0.110000
     33 C35         -6.9790   -28.8880   -21.2460 ca         1 A1I      -0.049000
     34 C36         -5.7190   -28.4600   -21.6670 ca         1 A1I      -0.144600
     35 H1          -2.5260   -28.4040   -20.8560 hn         1 A1I       0.354500
     36 H2          -4.4310   -27.1070   -25.3930 hc         1 A1I       0.070200
     37 H3          -2.9060   -26.5820   -24.7100 hc         1 A1I       0.070200
     38 H4          -5.6970   -25.2980   -26.2310 ha         1 A1I       0.119000
     39 H5          -2.4850   -20.1310   -23.8220 h1         1 A1I       0.069700
     40 H6          -2.7660   -21.8020   -24.2880 h1         1 A1I       0.069700
     41 H7           0.3780   -23.1880   -22.8610 hc         1 A1I       0.054700
     42 H8          -1.2380   -23.3550   -22.1660 hc         1 A1I       0.054700
     43 H9          -0.9930   -23.5510   -23.9060 hc         1 A1I       0.054700
     44 H10         -3.2930   -19.4950   -21.3110 h1         1 A1I       0.090700
     45 H11         -3.1430   -20.8840   -20.2410 h1         1 A1I       0.090700
     46 H12          3.7400   -21.7390   -24.7640 h4         1 A1I       0.043100
     47 H13         -6.5300   -22.9790   -26.0710 ha         1 A1I       0.139000
     48 H14         -0.3510   -21.1660   -24.1190 h1         1 A1I       0.095700
     49 H15          5.3820   -20.4810   -23.1150 h4         1 A1I       0.165000
     50 H16         -3.4260   -24.7340   -22.6480 ha         1 A1I       0.135000
     51 H17         -6.6070   -27.0850   -24.6470 ha         1 A1I       0.118000
     52 H18         -8.8010   -27.8350   -23.8920 ha         1 A1I       0.119000
     53 H19         -9.0600   -28.9890   -21.7190 ha         1 A1I       0.123000
     54 H20         -7.0810   -29.3990   -20.2980 ha         1 A1I       0.142000
     55 C13         -4.2090   -22.1890   -22.1330 c          1 A1I       0.631700
     56 O1          -4.5660   -29.2610   -19.7410 o          1 A1I      -0.536000
@<TRIPOS>BOND
     1     1    12 1   
     2     1    13 1   
     3     1    35 1   
     4     2     3 1   
     5     2    13 2   
     6     2    29 1   
     7     3     4 1   
     8     3    36 1   
     9     3    37 1   
    10     4     5 ar  
    11     4    28 ar  
    12     5    14 ar  
    13     5    38 1   
    14     6    14 ar  
    15     6    15 1   
    16     6    16 ar  
    17     7    17 1   
    18     7    18 1   
    19     7    39 1   
    20     7    40 1   
    21     8    18 1   
    22     8    41 1   
    23     8    42 1   
    24     8    43 1   
    25     9    17 1   
    26     9    20 1   
    27     9    44 1   
    28     9    45 1   
    29    10    23 1   
    30    10    24 2   
    31    10    26 1   
    32    11    24 1   
    33    11    25 2   
    34    11    46 1   
    35    12    34 1   
    36    12    56 2   
    37    14    47 1   
    38    16    28 ar  
    39    16    55 1   
    40    17    55 1   
    41    18    19 1   
    42    18    48 1   
    43    19    20 1   
    44    19    23 1   
    45    20    21 2   
    46    21    22 1   
    47    22    23 2   
    48    25    26 1   
    49    25    49 1   
    50    27    55 2   
    51    28    50 1   
    52    29    30 ar  
    53    29    34 ar  
    54    30    31 ar  
    55    30    51 1   
    56    31    32 ar  
    57    31    52 1   
    58    32    33 ar  
    59    32    53 1   
    60    33    34 ar  
    61    33    54 1   
@<TRIPOS>SUBSTRUCTURE
     1 A1I         1 TEMP              0 ****  ****    0 ROOT
