@<TRIPOS>MOLECULE
A1I
   56    61     1     0     0
SMALL
abcg2


@<TRIPOS>ATOM
      1 N3         -15.0450    14.9890    -6.3720 ns         1 A1I      -0.238900
      2 C5         -14.1400    15.8350    -4.4820 cc         1 A1I       0.371900
      3 C6         -14.3610    16.5330    -3.1710 c3         1 A1I      -0.052400
      4 C7         -13.9480    17.9850    -3.2210 ca         1 A1I      -0.098300
      5 C8         -13.0430    18.5090    -2.3050 ca         1 A1I      -0.068000
      6 C10        -13.2200    20.6510    -3.3180 ca         1 A1I       0.196000
      7 C15        -16.0060    23.0090    -5.9220 c6         1 A1I       0.078000
      8 C17        -17.8310    21.5640    -6.9410 c3         1 A1I      -0.103100
      9 C20        -16.0340    22.2190    -3.6270 c6         1 A1I       0.080700
     10 C24        -20.5270    23.4000    -5.3150 cc         1 A1I       0.371400
     11 C26        -21.6700    24.0110    -7.0800 cd         1 A1I       0.277900
     12 C2         -13.8880    14.6450    -7.0060 c          1 A1I       0.556600
     13 N4         -15.1890    15.5680    -5.1760 nd         1 A1I      -0.427300
     14 C9         -12.6670    19.8440    -2.3480 ca         1 A1I      -0.151000
     15 F11        -12.8680    21.9450    -3.3800 f          1 A1I      -0.172000
     16 C12        -14.1350    20.1740    -4.2410 ca         1 A1I      -0.189600
     17 N14        -15.5140    22.0360    -4.9650 n          1 A1I      -0.413800
     18 C16        -17.5000    22.8260    -6.1620 c6         1 A1I       0.079300
     19 N18        -18.1360    22.8040    -4.8420 na         1 A1I      -0.328000
     20 C19        -17.5020    22.4770    -3.6950 cc         1 A1I       0.357800
     21 N21        -18.3370    22.4800    -2.6930 nd         1 A1I      -0.350000
     22 N22        -19.5470    22.8130    -3.1790 nd         1 A1I      -0.357000
     23 C23        -19.4260    23.0030    -4.4670 cc         1 A1I       0.346500
     24 N25        -20.4550    23.6460    -6.5860 nd         1 A1I      -0.651000
     25 C27        -22.6820    24.0440    -6.1730 cc         1 A1I      -0.289000
     26 S28        -22.0990    23.5990    -4.6290 ss         1 A1I       0.096600
     27 O29        -14.3220    20.8610    -6.4870 o          1 A1I      -0.570100
     28 C30        -14.4790    18.8290    -4.1920 ca         1 A1I      -0.035000
     29 C31        -12.8100    15.5140    -4.9560 ca         1 A1I      -0.112900
     30 C32        -11.6520    15.7590    -4.2070 ca         1 A1I      -0.099000
     31 C33        -10.4140    15.4310    -4.7170 ca         1 A1I      -0.083000
     32 C34        -10.2980    14.8510    -5.9830 ca         1 A1I      -0.111000
     33 C35        -11.4280    14.5950    -6.7300 ca         1 A1I      -0.050000
     34 C36        -12.6850    14.9240    -6.2210 ca         1 A1I      -0.144600
     35 H1         -15.9170    14.8160    -6.8530 hn         1 A1I       0.354500
     36 H2         -15.4230    16.4610    -2.9270 hc         1 A1I       0.071700
     37 H3         -13.8220    16.0230    -2.3700 hc         1 A1I       0.071700
     38 H4         -12.6160    17.8690    -1.5420 ha         1 A1I       0.119000
     39 H5         -15.4710    22.9110    -6.8620 h1         1 A1I       0.078700
     40 H6         -15.8120    24.0120    -5.5300 h1         1 A1I       0.078700
     41 H7         -18.9050    21.4760    -7.1000 hc         1 A1I       0.055700
     42 H8         -17.3510    21.6020    -7.9180 hc         1 A1I       0.055700
     43 H9         -17.4860    20.6710    -6.4200 hc         1 A1I       0.055700
     44 H10        -15.8630    21.3380    -3.0110 h1         1 A1I       0.082700
     45 H11        -15.5460    23.0670    -3.1360 h1         1 A1I       0.082700
     46 H12        -21.7720    24.2470    -8.1290 h4         1 A1I       0.044100
     47 H13        -11.9530    20.2470    -1.6420 ha         1 A1I       0.139000
     48 H14        -17.8740    23.7000    -6.6940 h1         1 A1I       0.096700
     49 H15        -23.7170    24.3000    -6.3350 h4         1 A1I       0.165000
     50 H16        -15.1880    18.4400    -4.9130 ha         1 A1I       0.137000
     51 H17        -11.7160    16.1990    -3.2220 ha         1 A1I       0.119000
     52 H18         -9.5250    15.6230    -4.1300 ha         1 A1I       0.118000
     53 H19         -9.3220    14.5980    -6.3730 ha         1 A1I       0.122000
     54 H20        -11.3490    14.1390    -7.7080 ha         1 A1I       0.142000
     55 C13        -14.6640    21.0520    -5.3340 c          1 A1I       0.636700
     56 O1         -13.8960    14.1480    -8.1220 o          1 A1I      -0.539000
@<TRIPOS>BOND
     1     1    12 1   
     2     1    13 1   
     3     1    35 1   
     4     2     3 1   
     5     2    13 2   
     6     2    29 1   
     7     3     4 1   
     8     3    36 1   
     9     3    37 1   
    10     4     5 ar  
    11     4    28 ar  
    12     5    14 ar  
    13     5    38 1   
    14     6    14 ar  
    15     6    15 1   
    16     6    16 ar  
    17     7    17 1   
    18     7    18 1   
    19     7    39 1   
    20     7    40 1   
    21     8    18 1   
    22     8    41 1   
    23     8    42 1   
    24     8    43 1   
    25     9    17 1   
    26     9    20 1   
    27     9    44 1   
    28     9    45 1   
    29    10    23 1   
    30    10    24 2   
    31    10    26 1   
    32    11    24 1   
    33    11    25 2   
    34    11    46 1   
    35    12    34 1   
    36    12    56 2   
    37    14    47 1   
    38    16    28 ar  
    39    16    55 1   
    40    17    55 1   
    41    18    19 1   
    42    18    48 1   
    43    19    20 1   
    44    19    23 1   
    45    20    21 2   
    46    21    22 1   
    47    22    23 2   
    48    25    26 1   
    49    25    49 1   
    50    27    55 2   
    51    28    50 1   
    52    29    30 ar  
    53    29    34 ar  
    54    30    31 ar  
    55    30    51 1   
    56    31    32 ar  
    57    31    52 1   
    58    32    33 ar  
    59    32    53 1   
    60    33    34 ar  
    61    33    54 1   
@<TRIPOS>SUBSTRUCTURE
     1 A1I         1 TEMP              0 ****  ****    0 ROOT
