@<TRIPOS>MOLECULE
A1I
   58    62     1     0     0
SMALL
abcg2


@<TRIPOS>ATOM
      1 C1          -0.8820     0.9900    -1.3710 c3         1 A1I       0.123900
      2 N           -1.8610    -2.7770     1.6580 n8         1 A1I      -1.023200
      3 CA          -2.3030    -2.2630     0.3770 c3         1 A1I       0.011500
      4 C           -3.3080    -3.1650    -0.3960 c          1 A1I       0.699000
      5 O           -3.5070    -4.3070     0.0520 o          1 A1I      -0.709500
      6 CG          -0.1270    -1.0130     0.0160 cc         1 A1I      -0.060300
      7 ND1         -0.0510     0.3110    -0.3760 na         1 A1I       0.014300
      8 CD2          0.8250    -1.1650     0.9750 cd         1 A1I      -0.177000
      9 CE1          0.9040     0.9180     0.3160 cc         1 A1I      -0.112300
     10 NE2          1.4470     0.0430     1.1450 na         1 A1I       0.066000
     11 C10         -5.9180     2.7140     0.7490 ca         1 A1I      -0.121000
     12 C11         -7.0450     1.9800     0.4960 ca         1 A1I      -0.084000
     13 C2          -6.9710     0.7970    -0.2690 ca         1 A1I      -0.116000
     14 C3          -5.7710     0.3740    -0.7720 ca         1 A1I      -0.062000
     15 C4          -4.5920     1.1200    -0.5380 ca         1 A1I      -0.047000
     16 C5          -3.3430     0.7140    -1.0620 ca         1 A1I      -0.017000
     17 C6          -2.2050     1.4320    -0.8100 ca         1 A1I      -0.174300
     18 C7          -2.2780     2.6020    -0.0190 ca         1 A1I      -0.107000
     19 C8          -3.4730     3.0260     0.4900 ca         1 A1I      -0.098000
     20 C9          -4.6630     2.3010     0.2440 ca         1 A1I      -0.021000
     21 C12          2.6030     0.3020     2.0020 c3         1 A1I       0.117900
     22 C13          7.4550    -0.6430    -0.8920 ca         1 A1I      -0.098000
     23 C14          8.1320     0.4100    -1.4440 ca         1 A1I      -0.091000
     24 C15          7.6470     1.7270    -1.2950 ca         1 A1I      -0.097000
     25 C16          6.4940     1.9640    -0.5970 ca         1 A1I      -0.098000
     26 C17          5.7720     0.8940    -0.0180 ca         1 A1I      -0.044000
     27 C18          4.5760     1.1070     0.7060 ca         1 A1I      -0.067000
     28 C19          3.8910     0.0610     1.2630 ca         1 A1I      -0.141300
     29 C20          4.3860    -1.2560     1.1180 ca         1 A1I      -0.097000
     30 C21          5.5360    -1.4940     0.4200 ca         1 A1I      -0.081000
     31 C22          6.2600    -0.4290    -0.1670 ca         1 A1I      -0.022000
     32 H12         -0.3060     1.8420    -1.7290 h1         1 A1I       0.080700
     33 H51         -1.0160     0.3140    -2.2130 h1         1 A1I       0.080700
     34 HA          -2.7930    -1.3000     0.5510 h1         1 A1I       0.043700
     35 HD2          1.1030    -2.0370     1.5420 h4         1 A1I       0.202000
     36 HE1          1.1940     1.9520     0.2120 h5         1 A1I       0.204000
     37 H10         -5.9740     3.6190     1.3410 ha         1 A1I       0.111000
     38 H11         -8.0020     2.3040     0.8860 ha         1 A1I       0.113000
     39 H22         -7.8690     0.2220    -0.4520 ha         1 A1I       0.123000
     40 H3          -5.7040    -0.5410    -1.3470 ha         1 A1I       0.159000
     41 H5          -3.3050    -0.1990    -1.6450 ha         1 A1I       0.166000
     42 H7          -1.3780     3.1750     0.1750 ha         1 A1I       0.091000
     43 H8          -3.5210     3.9300     1.0860 ha         1 A1I       0.113000
     44 H32          2.5340     1.3320     2.3490 h1         1 A1I       0.085200
     45 H42          2.5120    -0.3490     2.8700 h1         1 A1I       0.085200
     46 H13          7.8270    -1.6540    -1.0060 ha         1 A1I       0.122000
     47 H14          9.0450     0.2370    -1.9980 ha         1 A1I       0.122000
     48 H15          8.1930     2.5510    -1.7350 ha         1 A1I       0.121000
     49 H16          6.1200     2.9740    -0.4800 ha         1 A1I       0.115000
     50 H18          4.2070     2.1210     0.8180 ha         1 A1I       0.109000
     51 H20          3.8490    -2.0820     1.5710 ha         1 A1I       0.120000
     52 H21          5.9100    -2.5050     0.3150 ha         1 A1I       0.127000
     53 OXT         -3.8140    -2.6610    -1.4230 o          1 A1I      -0.709500
     54 H           -2.6000    -2.6480     2.3380 hn         1 A1I       0.403000
     55 CB          -1.0820    -2.0120    -0.5300 c3         1 A1I      -0.012100
     56 H2          -1.7640    -3.7830     1.5710 hn         1 A1I       0.403000
     57 HB1         -0.5440    -2.9550    -0.6580 hc         1 A1I       0.077200
     58 HB2         -1.4160    -1.7160    -1.5230 hc         1 A1I       0.077200
@<TRIPOS>BOND
     1     1     7 1   
     2     1    17 1   
     3     1    32 1   
     4     1    33 1   
     5     2     3 1   
     6     2    54 1   
     7     2    56 1   
     8     3     4 1   
     9     3    34 1   
    10     3    55 1   
    11     4     5 1   
    12     4    53 1   
    13     6     7 1   
    14     6     8 2   
    15     6    55 1   
    16     7     9 2   
    17     8    10 1   
    18     8    35 1   
    19     9    10 1   
    20     9    36 1   
    21    10    21 1   
    22    11    12 ar  
    23    11    20 ar  
    24    11    37 1   
    25    12    13 ar  
    26    12    38 1   
    27    13    14 ar  
    28    13    39 1   
    29    14    15 ar  
    30    14    40 1   
    31    15    16 ar  
    32    15    20 ar  
    33    16    17 ar  
    34    16    41 1   
    35    17    18 ar  
    36    18    19 ar  
    37    18    42 1   
    38    19    20 ar  
    39    19    43 1   
    40    21    28 1   
    41    21    44 1   
    42    21    45 1   
    43    22    23 ar  
    44    22    31 ar  
    45    22    46 1   
    46    23    24 ar  
    47    23    47 1   
    48    24    25 ar  
    49    24    48 1   
    50    25    26 ar  
    51    25    49 1   
    52    26    27 ar  
    53    26    31 ar  
    54    27    28 ar  
    55    27    50 1   
    56    28    29 ar  
    57    29    30 ar  
    58    29    51 1   
    59    30    31 ar  
    60    30    52 1   
    61    55    57 1   
    62    55    58 1   
@<TRIPOS>SUBSTRUCTURE
     1 A1I         1 TEMP              0 ****  ****    0 ROOT
