@<TRIPOS>MOLECULE
A1I
   78    83     1     0     0
SMALL
abcg2


@<TRIPOS>ATOM
      1 N3          -7.9710     2.2180    -2.1430 ns         1 A1I      -0.462400
      2 C4          -7.4070     3.2960    -1.5220 cc         1 A1I       0.677800
      3 C7          -5.9660     1.9340    -0.5380 cd         1 A1I       0.089400
      4 C8          -6.4570     0.7810    -1.1210 cc         1 A1I       0.108500
      5 C2          -7.5640     0.8820    -2.0110 c          1 A1I       0.519500
      6 C10         -4.8490     0.1610     0.1060 cd         1 A1I       0.484400
      7 C12         -4.1300     2.3750     1.0980 c5         1 A1I       0.320300
      8 O1          -8.1400    -0.0040    -2.6190 o          1 A1I      -0.555000
      9 C14         -2.2750     1.8770     2.4130 c5         1 A1I       0.148300
     10 C15         -2.1070     0.4450     2.8830 c3         1 A1I       0.229600
     11 C29          5.5620    -0.2420    -3.4720 c3         1 A1I       0.233600
     12 C30          4.9900     1.1670    -3.4670 c5         1 A1I       0.156300
     13 C31          6.0600     2.2090    -3.1810 c5         1 A1I       0.089300
     14 C32          6.0270     2.2490    -1.6490 c5         1 A1I       0.067300
     15 C33          4.5290     2.0880    -1.3750 c5         1 A1I       0.331300
     16 C36          3.2760     1.8350     0.7800 ca         1 A1I       0.106500
     17 C37          3.1640     0.7840     1.6770 ca         1 A1I      -0.049600
     18 C39          4.6140     0.1820     0.2630 cc         1 A1I       0.409700
     19 C40          2.1910     0.9170     2.6850 ca         1 A1I       0.452900
     20 C42          1.7760     3.0250     1.8510 ca         1 A1I       0.148900
     21 C51         -3.2500     2.6620     3.2760 c5         1 A1I       0.100300
     22 C53         -4.5730     2.3700     2.5630 c5         1 A1I       0.060300
     23 N11         -4.9330     1.5260     0.2470 na         1 A1I      -0.176500
     24 N35          4.2190     1.4360    -0.1280 na         1 A1I      -0.311300
     25 N38          4.0190    -0.2330     1.3390 nd         1 A1I      -0.453100
     26 N41          1.5340     2.0830     2.7580 nb         1 A1I      -0.357000
     27 N43          2.6050     2.9830     0.8220 nb         1 A1I      -0.273000
     28 N44          1.9180    -0.0580     3.5620 nv         1 A1I      -1.033900
     29 N5          -7.9110     4.5060    -1.8120 nv         1 A1I      -1.066200
     30 N6          -6.3950     3.1950    -0.6980 nd         1 A1I      -0.660100
     31 N9          -5.7450    -0.3130    -0.7050 nc         1 A1I      -0.607000
     32 O13         -2.8110     1.9220     1.0860 os         1 A1I      -0.390000
     33 O16         -1.2430    -0.2200     1.9930 os         1 A1I      -0.543400
     34 O18         -1.3000    -2.4470     3.2830 o          1 A1I      -0.863000
     35 O19          0.0540    -2.0570     1.1060 os         1 A1I      -0.686800
     36 O21          0.6330    -4.5530     1.3470 o          1 A1I      -0.887000
     37 O22          2.1710    -2.8530     0.1530 os         1 A1I      -0.710800
     38 O24          3.0470    -4.8940    -1.1230 o          1 A1I      -0.879000
     39 O25          3.0600    -2.5060    -2.1070 os         1 A1I      -0.699800
     40 O27          5.5950    -2.5290    -1.6120 o          1 A1I      -0.870000
     41 O28          4.5110    -1.1710    -3.5160 os         1 A1I      -0.564400
     42 O34          4.0160     1.3310    -2.4350 os         1 A1I      -0.386000
     43 O45          6.4840     3.4450    -1.0870 oh         1 A1I      -0.713000
     44 O46          5.6550     3.4400    -3.7200 oh         1 A1I      -0.719000
     45 O47          4.6520    -3.6960    -3.7460 o          1 A1I      -0.870000
     46 O48          0.8500    -3.7100    -1.8890 o          1 A1I      -0.879000
     47 O49          1.9850    -2.7660     2.6610 o          1 A1I      -0.887000
     48 O50         -2.4840    -2.2190     0.9810 o          1 A1I      -0.863000
     49 O52         -2.9300     4.0270     3.1970 oh         1 A1I      -0.706000
     50 O54         -5.5700     3.3300     2.7590 oh         1 A1I      -0.717000
     51 P17         -1.3590    -1.8630     1.9060 p5         1 A1I       1.449800
     52 P20          1.2140    -3.1800     1.4370 p5         1 A1I       1.558800
     53 P23          2.2180    -3.6620    -1.2890 p5         1 A1I       1.542800
     54 P26          4.5840    -2.6140    -2.7170 p5         1 A1I       1.478800
     55 H1          -8.7530     2.3730    -2.7680 hn         1 A1I       0.292500
     56 H2          -4.0900    -0.4270     0.6050 h5         1 A1I       0.155100
     57 H3          -4.2120     3.3880     0.6890 h2         1 A1I       0.084700
     58 H4          -1.2930     2.3590     2.3960 h1         1 A1I       0.129700
     59 H5          -1.6880     0.4650     3.8960 h1         1 A1I      -0.002300
     60 H6          -3.0860    -0.0480     2.9530 h1         1 A1I      -0.002300
     61 H7           6.2020    -0.3380    -4.3580 h1         1 A1I      -0.006300
     62 H8           6.2050    -0.4070    -2.6010 h1         1 A1I      -0.006300
     63 H9           4.4980     1.3610    -4.4250 h1         1 A1I       0.076700
     64 H10          7.0440     1.9010    -3.5610 h1         1 A1I       0.027700
     65 H11          6.5800     1.3880    -1.2560 h1         1 A1I       0.075700
     66 H12          4.0510     3.0720    -1.3260 h2         1 A1I       0.086700
     67 H13          5.3300    -0.4000    -0.2990 h5         1 A1I       0.103800
     68 H14          1.2070     3.9420     1.9700 h5         1 A1I      -0.007900
     69 H15         -3.2580     2.3060     4.3150 h1         1 A1I       0.048700
     70 H16         -4.9200     1.3660     2.8360 h1         1 A1I       0.070700
     71 H17          2.0900    -1.0290     3.2840 hn         1 A1I       0.524500
     72 H18          1.1030     0.0820     4.1380 hn         1 A1I       0.524500
     73 H19         -8.8110     4.6050    -2.2510 hn         1 A1I       0.478000
     74 H20         -7.6040     5.2800    -1.2470 hn         1 A1I       0.478000
     75 H21          7.4400     3.3970    -0.9860 ho         1 A1I       0.481000
     76 H22          6.1220     4.1380    -3.2450 ho         1 A1I       0.488000
     77 H27         -3.7270     4.5300     3.4000 ho         1 A1I       0.486000
     78 H28         -6.0510     3.1210     3.5660 ho         1 A1I       0.489000
@<TRIPOS>BOND
     1     1     2 1   
     2     1     5 1   
     3     1    55 1   
     4     2    29 1   
     5     2    30 2   
     6     3     4 2   
     7     3    23 1   
     8     3    30 1   
     9     4     5 1   
    10     4    31 1   
    11     5     8 2   
    12     6    23 1   
    13     6    31 2   
    14     6    56 1   
    15     7    22 1   
    16     7    23 1   
    17     7    32 1   
    18     7    57 1   
    19     9    10 1   
    20     9    21 1   
    21     9    32 1   
    22     9    58 1   
    23    10    33 1   
    24    10    59 1   
    25    10    60 1   
    26    11    12 1   
    27    11    41 1   
    28    11    61 1   
    29    11    62 1   
    30    12    13 1   
    31    12    42 1   
    32    12    63 1   
    33    13    14 1   
    34    13    44 1   
    35    13    64 1   
    36    14    15 1   
    37    14    43 1   
    38    14    65 1   
    39    15    24 1   
    40    15    42 1   
    41    15    66 1   
    42    16    17 ar  
    43    16    24 1   
    44    16    27 ar  
    45    17    19 ar  
    46    17    25 1   
    47    18    24 1   
    48    18    25 2   
    49    18    67 1   
    50    19    26 ar  
    51    19    28 1   
    52    20    26 ar  
    53    20    27 ar  
    54    20    68 1   
    55    21    22 1   
    56    21    49 1   
    57    21    69 1   
    58    22    50 1   
    59    22    70 1   
    60    28    71 1   
    61    28    72 1   
    62    29    73 1   
    63    29    74 1   
    64    33    51 1   
    65    34    51 1   
    66    35    51 1   
    67    35    52 1   
    68    36    52 1   
    69    37    52 1   
    70    37    53 1   
    71    38    53 1   
    72    39    53 1   
    73    39    54 1   
    74    40    54 1   
    75    41    54 1   
    76    43    75 1   
    77    44    76 1   
    78    45    54 1   
    79    46    53 1   
    80    47    52 1   
    81    48    51 1   
    82    49    77 1   
    83    50    78 1   
@<TRIPOS>SUBSTRUCTURE
     1 A1I         1 TEMP              0 ****  ****    0 ROOT
