@<TRIPOS>MOLECULE
A1I
   52    53     1     0     0
SMALL
abcg2


@<TRIPOS>ATOM
      1 C10         -2.7950    -0.2470    19.5410 c3         1 A1I      -0.076100
      2 N12         -6.2860    -3.6310    22.8340 ns         1 A1I      -0.174000
      3 C13         -7.2020    -3.4510    23.8410 ca         1 A1I      -0.012000
      4 C20        -10.8070    -4.4280    27.2260 ca         1 A1I      -0.090500
      5 C21        -11.7660    -4.3810    28.2250 ca         1 A1I      -0.142500
      6 C22        -12.0310    -3.1870    28.8890 ca         1 A1I       0.064100
      7 C24        -12.6660    -3.3930    31.2010 c3         1 A1I       0.182300
      8 C26        -12.1590    -4.8090    31.4090 c3         1 A1I      -0.119100
      9 C28        -10.3770    -2.0910    27.5230 ca         1 A1I      -0.090500
     10 C02         -5.3920    -2.7180    22.3490 c          1 A1I       0.634100
     11 C03         -4.5110    -3.3010    21.2720 c3         1 A1I      -0.448700
     12 C08         -3.4540    -2.3290    20.7640 c3         1 A1I      -0.014400
     13 C09         -3.9380    -1.2160    19.8280 c3         1 A1I      -0.068700
     14 C11         -4.4920    -1.7690    18.5180 c3         1 A1I      -0.076100
     15 C14         -7.6090    -2.2470    24.4270 ca         1 A1I       0.009900
     16 C16         -7.8480    -4.5860    24.3490 ca         1 A1I       0.009900
     17 C18         -9.0750    -3.3430    25.7930 cp         1 A1I       0.036500
     18 C19        -10.0940    -3.2860    26.8590 cp         1 A1I      -0.068500
     19 C25        -11.7070    -2.3600    31.7650 c3         1 A1I      -0.119100
     20 C27        -11.3290    -2.0400    28.5270 ca         1 A1I      -0.142500
     21 N15         -8.5280    -2.2070    25.3810 nb         1 A1I      -0.165500
     22 N17         -8.7590    -4.5380    25.2980 nb         1 A1I      -0.165500
     23 O06         -2.8720    -4.5970    23.0380 o          1 A1I      -0.864167
     24 O07         -5.0300    -5.7610    22.2280 o          1 A1I      -0.864167
     25 P04         -3.7510    -4.9510    21.8440 p5         1 A1I       1.290500
     26 H101        -3.1110     0.5660    18.8840 hc         1 A1I       0.013867
     27 H102        -2.4080     0.2000    20.4590 hc         1 A1I       0.013867
     28 H103        -1.9650    -0.7630    19.0510 hc         1 A1I       0.013867
     29 H121        -5.9750    -4.6380    22.5960 hn         1 A1I       0.250000
     30 H201       -10.6150    -5.3650    26.7220 ha         1 A1I       0.135000
     31 H211       -12.3200    -5.2750    28.4820 ha         1 A1I       0.102000
     32 H241       -13.6250    -3.2920    31.7140 h1         1 A1I       0.050700
     33 H263       -12.0710    -5.0040    32.4780 hc         1 A1I       0.040033
     34 H262       -12.8450    -5.5470    30.9920 hc         1 A1I       0.040033
     35 H261       -11.1730    -4.9630    30.9670 hc         1 A1I       0.040033
     36 H281        -9.8430    -1.1900    27.2530 ha         1 A1I       0.135000
     37 H031        -5.1730    -3.5880    20.4460 hc         1 A1I       0.056700
     38 H082        -2.9370    -1.8800    21.6170 hc         1 A1I       0.048700
     39 H081        -2.6960    -2.9060    20.2250 hc         1 A1I       0.048700
     40 H091        -4.7360    -0.6580    20.3280 hc         1 A1I       0.046700
     41 H111        -4.8070    -0.9620    17.8550 hc         1 A1I       0.013867
     42 H113        -3.7320    -2.3520    17.9910 hc         1 A1I       0.013867
     43 H112        -5.3560    -2.4170    18.6730 hc         1 A1I       0.013867
     44 H141        -7.1890    -1.3000    24.1210 h4         1 A1I       0.045600
     45 H161        -7.6000    -5.5680    23.9560 h4         1 A1I       0.045600
     46 H252       -11.5980    -2.5180    32.8380 hc         1 A1I       0.040033
     47 H253       -10.7140    -2.4360    31.3190 hc         1 A1I       0.040033
     48 H251       -12.0780    -1.3450    31.6140 hc         1 A1I       0.040033
     49 H271       -11.5390    -1.1020    29.0240 ha         1 A1I       0.102000
     50 O01         -5.3160    -1.5680    22.7600 o          1 A1I      -0.674100
     51 O05         -3.0330    -5.5220    20.6290 o          1 A1I      -0.864167
     52 O23        -13.0120    -3.1260    29.8290 os         1 A1I      -0.378100
@<TRIPOS>BOND
     1     1    13 1   
     2     1    26 1   
     3     1    27 1   
     4     1    28 1   
     5     2     3 1   
     6     2    10 1   
     7     2    29 1   
     8     3    15 ar  
     9     3    16 ar  
    10     4     5 ar  
    11     4    18 ar  
    12     4    30 1   
    13     5     6 ar  
    14     5    31 1   
    15     6    20 ar  
    16     6    52 1   
    17     7     8 1   
    18     7    19 1   
    19     7    32 1   
    20     7    52 1   
    21     8    33 1   
    22     8    34 1   
    23     8    35 1   
    24     9    18 ar  
    25     9    20 ar  
    26     9    36 1   
    27    10    11 1   
    28    10    50 2   
    29    11    12 1   
    30    11    25 1   
    31    11    37 1   
    32    12    13 1   
    33    12    38 1   
    34    12    39 1   
    35    13    14 1   
    36    13    40 1   
    37    14    41 1   
    38    14    42 1   
    39    14    43 1   
    40    15    21 ar  
    41    15    44 1   
    42    16    22 ar  
    43    16    45 1   
    44    17    18 1   
    45    17    21 ar  
    46    17    22 ar  
    47    19    46 1   
    48    19    47 1   
    49    19    48 1   
    50    20    49 1   
    51    23    25 1   
    52    24    25 1   
    53    25    51 1   
@<TRIPOS>SUBSTRUCTURE
     1 A1I         1 TEMP              0 ****  ****    0 ROOT
