@<TRIPOS>MOLECULE
A1I
   24    25     1     0     0
SMALL
abcg2


@<TRIPOS>ATOM
      1 N1         -13.9930     6.1030   -40.1760 n7         1 A1I      -0.852300
      2 C4         -13.4200     7.4810   -36.7280 ca         1 A1I      -0.076300
      3 C5         -12.9100     6.4280   -35.9700 ca         1 A1I      -0.100500
      4 C6         -12.8720     6.5060   -34.5850 ca         1 A1I      -0.106500
      5 C7         -13.3420     7.6410   -33.9360 ca         1 A1I      -0.102000
      6 C8         -13.8480     8.6960   -34.6810 ca         1 A1I      -0.106500
      7 S1         -12.5240     6.7920   -40.5720 s6         1 A1I       1.150100
      8 O2         -11.6190     5.7940   -41.1250 o          1 A1I      -0.525000
      9 C1         -12.1090     7.2580   -38.8890 c5         1 A1I      -0.325400
     10 C2         -13.4780     7.4120   -38.2310 c5         1 A1I      -0.011400
     11 C3         -14.3000     6.2250   -38.7510 c5         1 A1I       0.192800
     12 C9         -13.8860     8.6140   -36.0670 ca         1 A1I      -0.100500
     13 H6         -14.1050     5.1730   -40.5640 hn         1 A1I       0.487000
     14 H7         -12.5360     5.5360   -36.4580 ha         1 A1I       0.112000
     15 H8         -12.4750     5.6780   -34.0130 ha         1 A1I       0.116500
     16 H9         -13.3130     7.7010   -32.8560 ha         1 A1I       0.116000
     17 H10        -14.2170     9.5850   -34.1860 ha         1 A1I       0.116500
     18 H2         -11.5320     6.4400   -38.4540 h1         1 A1I       0.112200
     19 H1         -11.5120     8.1680   -38.9010 h1         1 A1I       0.112200
     20 H3         -13.9320     8.3350   -38.6000 hc         1 A1I       0.082700
     21 H5         -14.0320     5.3110   -38.2170 h1         1 A1I       0.061700
     22 H4         -15.3660     6.4050   -38.6110 h1         1 A1I       0.061700
     23 H11        -14.2860     9.4420   -36.6420 ha         1 A1I       0.112000
     24 O1         -12.7610     7.9930   -41.3590 o          1 A1I      -0.525000
@<TRIPOS>BOND
     1     1     7 1   
     2     1    11 1   
     3     1    13 1   
     4     2     3 ar  
     5     2    10 1   
     6     2    12 ar  
     7     3     4 ar  
     8     3    14 1   
     9     4     5 ar  
    10     4    15 1   
    11     5     6 ar  
    12     5    16 1   
    13     6    12 ar  
    14     6    17 1   
    15     7     8 2   
    16     7     9 1   
    17     7    24 2   
    18     9    10 1   
    19     9    18 1   
    20     9    19 1   
    21    10    11 1   
    22    10    20 1   
    23    11    21 1   
    24    11    22 1   
    25    12    23 1   
@<TRIPOS>SUBSTRUCTURE
     1 A1I         1 TEMP              0 ****  ****    0 ROOT
