@<TRIPOS>MOLECULE
A1I
   24    25     1     0     0
SMALL
abcg2


@<TRIPOS>ATOM
      1 C4          -4.6000    23.1500    10.0550 cy         1 A1I       0.075500
      2 C6          -3.5350    21.6590    11.7510 c          1 A1I       0.620700
      3 C7          -3.1030    20.2570    12.0250 ca         1 A1I      -0.144600
      4 C8          -1.8330    20.0480    12.5570 ca         1 A1I      -0.072000
      5 C10         -2.2380    17.6780    12.6310 ca         1 A1I      -0.091000
      6 O1          -4.1390    22.7870     7.6090 oh         1 A1I      -0.642000
      7 C2          -4.8870    22.4170     8.7230 cy         1 A1I       0.130300
      8 C3          -4.3750    21.1260     9.3840 cy         1 A1I       0.075500
      9 N5          -4.2700    21.8600    10.6460 nj         1 A1I      -0.407800
     10 C9          -1.3980    18.7640    12.8460 ca         1 A1I      -0.120500
     11 C11         -3.5150    17.8830    12.1260 ca         1 A1I      -0.120500
     12 C12         -3.9450    19.1660    11.8180 ca         1 A1I      -0.072000
     13 O13         -3.2340    22.5780    12.5020 o          1 A1I      -0.591100
     14 H4B         -3.7480    23.8330    10.0070 h1         1 A1I       0.066450
     15 H4A         -5.4450    23.6560    10.5230 h1         1 A1I       0.066450
     16 H8          -1.1770    20.8900    12.7360 ha         1 A1I       0.123500
     17 H10         -1.9010    16.6760    12.8620 ha         1 A1I       0.114000
     18 H1          -4.5320    23.5770     7.2240 ho         1 A1I       0.453000
     19 H2          -5.9580    22.3730     8.5040 h1         1 A1I       0.049700
     20 H3A         -5.0760    20.2920     9.3920 h1         1 A1I       0.066450
     21 H3B         -3.4120    20.7860     8.9970 h1         1 A1I       0.066450
     22 H9          -0.4040    18.6100    13.2450 ha         1 A1I       0.116000
     23 H11         -4.1800    17.0440    11.9720 ha         1 A1I       0.116000
     24 H12         -4.9500    19.3110    11.4440 ha         1 A1I       0.123500
@<TRIPOS>BOND
     1     1     7 1   
     2     1     9 1   
     3     1    14 1   
     4     1    15 1   
     5     2     3 1   
     6     2     9 1   
     7     2    13 2   
     8     3     4 ar  
     9     3    12 ar  
    10     4    10 ar  
    11     4    16 1   
    12     5    10 ar  
    13     5    11 ar  
    14     5    17 1   
    15     6     7 1   
    16     6    18 1   
    17     7     8 1   
    18     7    19 1   
    19     8     9 1   
    20     8    20 1   
    21     8    21 1   
    22    10    22 1   
    23    11    12 ar  
    24    11    23 1   
    25    12    24 1   
@<TRIPOS>SUBSTRUCTURE
     1 A1I         1 TEMP              0 ****  ****    0 ROOT
