@<TRIPOS>MOLECULE
A1I
   12    11     1     0     0
SMALL
abcg2


@<TRIPOS>ATOM
      1 C4         -10.5610    16.1380    32.6170 c3         1 A1I      -0.055900
      2 C3         -11.0430    16.7720    33.8810 c2         1 A1I      -0.222200
      3 C2         -12.0030    17.6890    33.9590 c2         1 A1I      -0.222200
      4 C1         -12.4850    18.3230    35.2240 c3         1 A1I      -0.055900
      5 H1         -10.6920    15.0540    32.6430 hc         1 A1I       0.038033
      6 H2         -11.0930    16.5190    31.7450 hc         1 A1I       0.038033
      7 H3         -10.5580    16.4450    34.7980 ha         1 A1I       0.164000
      8 H4         -12.4880    18.0170    33.0420 ha         1 A1I       0.164000
      9 H5         -12.3550    19.4080    35.1970 hc         1 A1I       0.038033
     10 H6         -13.5510    18.1440    35.3750 hc         1 A1I       0.038033
     11 H7         -11.9520    17.9420    36.0950 hc         1 A1I       0.038033
     12 H8          -9.4940    16.3170    32.4660 hc         1 A1I       0.038033
@<TRIPOS>BOND
     1     1     2 1   
     2     1     5 1   
     3     1     6 1   
     4     1    12 1   
     5     2     3 2   
     6     2     7 1   
     7     3     4 1   
     8     3     8 1   
     9     4     9 1   
    10     4    10 1   
    11     4    11 1   
@<TRIPOS>SUBSTRUCTURE
     1 A1I         1 TEMP              0 ****  ****    0 ROOT
