@<TRIPOS>MOLECULE
A1I
   68    72     1     0     0
SMALL
abcg2


@<TRIPOS>ATOM
      1 C01        121.7260   133.6560   108.4300 c          1 A1I       0.617000
      2 C02        121.0160   135.2090   110.0630 cc         1 A1I       0.466900
      3 C03        121.0150   136.2260   109.1480 cd         1 A1I      -0.355600
      4 C04        121.3800   136.0370   107.7900 c          1 A1I       0.633600
      5 C05        120.3880   136.9040   111.1030 cd         1 A1I       0.688800
      6 C06        119.4380   137.2680   113.1920 ca         1 A1I       0.138100
      7 C08        120.9410   133.9710   105.2960 c3         1 A1I      -0.094400
      8 C09        121.3510   133.5380   103.9020 c3         1 A1I       0.165600
      9 C11        120.1080   137.5070   114.3800 ca         1 A1I      -0.099000
     10 C12        119.5340   137.1000   115.5690 ca         1 A1I      -0.074000
     11 C13        118.3040   136.4430   115.5820 ca         1 A1I       0.096400
     12 C14        117.6680   136.2070   114.3620 ca         1 A1I       0.144100
     13 C15        118.2160   136.6190   113.1620 ca         1 A1I      -0.117000
     14 C17        118.7970   138.8330   109.1470 ca         1 A1I      -0.127300
     15 C18        118.0320   139.5770   110.0370 ca         1 A1I      -0.076500
     16 C19        116.6600   139.6980   109.8700 ca         1 A1I      -0.109000
     17 C20        116.0540   139.0610   108.8000 ca         1 A1I       0.132000
     18 C21        116.7970   138.3160   107.8950 ca         1 A1I      -0.109000
     19 C22        118.1670   138.2100   108.0730 ca         1 A1I      -0.076500
     20 C23        117.5800   135.7770   118.9590 ca         1 A1I       0.067400
     21 C24        116.2940   135.2290   118.9870 ca         1 A1I      -0.064500
     22 C25        115.7360   134.8660   120.1980 ca         1 A1I      -0.122500
     23 C26        116.4450   135.0440   121.3840 ca         1 A1I      -0.082000
     24 C27        117.7210   135.5890   121.3570 ca         1 A1I      -0.122500
     25 C28        118.2870   135.9560   120.1450 ca         1 A1I      -0.064500
     26 C29        116.3480   134.2860   114.1950 c3         1 A1I       0.519000
     27 F01        116.7270   133.9010   112.9750 f          1 A1I      -0.104667
     28 F02        117.1070   133.6140   115.0570 f          1 A1I      -0.104667
     29 F03        115.0860   133.9350   114.3710 f          1 A1I      -0.104667
     30 N01        121.7440   134.7120   107.5250 n          1 A1I      -0.373400
     31 N02        121.3780   133.9400   109.7280 n          1 A1I      -0.358300
     32 N03        120.6290   135.6270   111.2840 nc         1 A1I      -0.755000
     33 N04        120.6030   137.3460   109.8590 na         1 A1I      -0.130500
     34 N05        117.6290   136.0200   116.7370 ne         1 A1I      -0.193400
     35 N06        118.2520   136.1820   117.7940 nf         1 A1I      -0.188400
     36 O01        121.3880   136.8900   106.9160 o          1 A1I      -0.539000
     37 O02        122.0130   132.5230   108.0960 o          1 A1I      -0.553000
     38 O03        119.9810   137.7620   112.0280 os         1 A1I      -0.356400
     39 O04        121.9640   134.6220   103.2380 oh         1 A1I      -0.661000
     40 O05        116.4210   135.6170   114.3590 os         1 A1I      -0.390100
     41 CL01       114.3410   139.2020   108.5830 cl         1 A1I      -0.196000
     42 H1         122.8710   133.5910   106.1870 h1         1 A1I       0.077700
     43 H2         122.6220   135.2620   105.7330 h1         1 A1I       0.077700
     44 H3         120.2190   134.7890   105.2310 hc         1 A1I       0.057700
     45 H4         120.4260   133.1310   105.7660 hc         1 A1I       0.057700
     46 H5         120.4590   133.1910   103.3650 h1         1 A1I       0.020200
     47 H6         122.0290   132.6770   103.9770 h1         1 A1I       0.020200
     48 H7         121.1430   133.2810   111.6770 h1         1 A1I       0.060033
     49 H8         120.6270   132.1130   110.4530 h1         1 A1I       0.060033
     50 H9         122.3540   132.3890   110.7500 h1         1 A1I       0.060033
     51 H10        121.0610   138.0200   114.3760 ha         1 A1I       0.140000
     52 H11        120.0410   137.2920   116.5040 ha         1 A1I       0.148000
     53 H12        117.6870   136.4660   112.2300 ha         1 A1I       0.156000
     54 H13        120.8240   138.8060   108.4220 h1         1 A1I       0.087700
     55 H14        120.6590   139.4160   110.0560 h1         1 A1I       0.087700
     56 H15        118.5070   140.0760   110.8730 ha         1 A1I       0.128000
     57 H16        116.0750   140.2810   110.5690 ha         1 A1I       0.133500
     58 H17        116.3160   137.8300   107.0570 ha         1 A1I       0.133500
     59 H18        118.7470   137.6390   107.3580 ha         1 A1I       0.128000
     60 H19        115.7420   135.0910   118.0680 ha         1 A1I       0.132000
     61 H20        114.7400   134.4420   120.2230 ha         1 A1I       0.120000
     62 H21        115.9990   134.7570   122.3270 ha         1 A1I       0.116000
     63 H22        118.2740   135.7290   122.2760 ha         1 A1I       0.120000
     64 H23        119.2810   136.3820   120.1040 ha         1 A1I       0.132000
     65 H24        122.2850   134.3120   102.3870 ho         1 A1I       0.442000
     66 C07        122.1310   134.3880   106.1500 c3         1 A1I       0.103000
     67 C10        121.3760   132.8630   110.7030 c3         1 A1I       0.100300
     68 C16        120.2800   138.6750   109.3530 c3         1 A1I       0.129900
@<TRIPOS>BOND
     1     1    30 1   
     2     1    31 1   
     3     1    37 2   
     4     2     3 2   
     5     2    31 1   
     6     2    32 1   
     7     3     4 1   
     8     3    33 1   
     9     4    30 1   
    10     4    36 2   
    11     5    32 2   
    12     5    33 1   
    13     5    38 1   
    14     6     9 ar  
    15     6    13 ar  
    16     6    38 1   
    17     7     8 1   
    18     7    44 1   
    19     7    45 1   
    20     7    66 1   
    21     8    39 1   
    22     8    46 1   
    23     8    47 1   
    24     9    10 ar  
    25     9    51 1   
    26    10    11 ar  
    27    10    52 1   
    28    11    12 ar  
    29    11    34 1   
    30    12    13 ar  
    31    12    40 1   
    32    13    53 1   
    33    14    15 ar  
    34    14    19 ar  
    35    14    68 1   
    36    15    16 ar  
    37    15    56 1   
    38    16    17 ar  
    39    16    57 1   
    40    17    18 ar  
    41    17    41 1   
    42    18    19 ar  
    43    18    58 1   
    44    19    59 1   
    45    20    21 ar  
    46    20    25 ar  
    47    20    35 1   
    48    21    22 ar  
    49    21    60 1   
    50    22    23 ar  
    51    22    61 1   
    52    23    24 ar  
    53    23    62 1   
    54    24    25 ar  
    55    24    63 1   
    56    25    64 1   
    57    26    27 1   
    58    26    28 1   
    59    26    29 1   
    60    26    40 1   
    61    30    66 1   
    62    31    67 1   
    63    33    68 1   
    64    34    35 2   
    65    39    65 1   
    66    42    66 1   
    67    43    66 1   
    68    48    67 1   
    69    49    67 1   
    70    50    67 1   
    71    54    68 1   
    72    55    68 1   
@<TRIPOS>SUBSTRUCTURE
     1 A1I         1 TEMP              0 ****  ****    0 ROOT
