@<TRIPOS>MOLECULE
A1I
   16    16     1     0     0
SMALL
abcg2


@<TRIPOS>ATOM
      1 C10         36.6200    -5.8350    -0.7180 ca         1 A1I      -0.154200
      2 C02         36.4420    -5.4670    -2.0490 ca         1 A1I       0.263000
      3 C03         37.0170    -4.2790    -2.4870 ca         1 A1I      -0.100000
      4 C04         37.7680    -3.4930    -1.6330 ca         1 A1I      -0.018000
      5 C05         37.9190    -3.8890    -0.3150 ca         1 A1I      -0.173200
      6 C09         37.3390    -5.0470     0.1630 ca         1 A1I      -0.001000
      7 I01         35.2740    -6.5220    -3.4240 i          1 A1I      -0.210000
      8 N06         38.7030    -3.0660     0.6000 no         1 A1I       0.697200
      9 N11         36.0710    -7.0700    -0.1660 no         1 A1I       0.692200
     10 O07         38.7650    -3.4130     1.7530 o          1 A1I      -0.380000
     11 O08         39.2410    -2.0870     0.1460 o          1 A1I      -0.380000
     12 O12         36.1480    -8.0650    -0.8400 o          1 A1I      -0.367500
     13 O13         35.5970    -7.0140     0.9410 o          1 A1I      -0.367500
     14 H031        36.8850    -3.9540    -3.5100 ha         1 A1I       0.151000
     15 H041        38.2150    -2.5830    -2.0040 ha         1 A1I       0.164000
     16 H091        37.4570    -5.3480     1.1940 ha         1 A1I       0.184000
@<TRIPOS>BOND
     1     1     2 ar  
     2     1     6 ar  
     3     1     9 1   
     4     2     3 ar  
     5     2     7 1   
     6     3     4 ar  
     7     3    14 1   
     8     4     5 ar  
     9     4    15 1   
    10     5     6 ar  
    11     5     8 1   
    12     6    16 1   
    13     8    10 1   
    14     8    11 1   
    15     9    12 1   
    16     9    13 1   
@<TRIPOS>SUBSTRUCTURE
     1 A1I         1 TEMP              0 ****  ****    0 ROOT
