@<TRIPOS>MOLECULE
A1I
   17    17     1     0     0
SMALL
abcg2


@<TRIPOS>ATOM
      1 N1          15.0910     1.4240   -11.4670 nv         1 A1I      -1.030200
      2 C2          15.1400     1.3790   -10.1090 ce         1 A1I       0.674800
      3 C4          16.4790     1.0480    -9.5420 ca         1 A1I      -0.244900
      4 C5          16.5840     0.0390    -8.5940 ca         1 A1I      -0.047000
      5 C6          17.8140    -0.2570    -8.0310 ca         1 A1I      -0.175000
      6 C7          18.9050     0.4910    -8.4370 ca         1 A1I       0.364900
      7 C9          17.6500     1.7400    -9.8770 ca         1 A1I       0.503300
      8 N3          14.1120     1.6370    -9.4000 n2         1 A1I      -0.840100
      9 N8          18.8260     1.4660    -9.3340 nb         1 A1I      -0.696000
     10 S10         17.6020     3.0700   -11.0440 sh         1 A1I      -0.347100
     11 H1A         15.7250     0.8490   -11.9970 hn         1 A1I       0.476000
     12 H1B         14.1800     1.5400   -11.8830 hn         1 A1I       0.476000
     13 H5          15.7010    -0.5180    -8.3060 ha         1 A1I       0.127000
     14 H6          17.9250    -1.0420    -7.2970 ha         1 A1I       0.131000
     15 H7          19.8900     0.3020    -8.0240 h4         1 A1I       0.024100
     16 H3          14.3480     1.6520    -8.4150 hn         1 A1I       0.390400
     17 H10         18.8520     3.4780   -10.7950 hs         1 A1I       0.213800
@<TRIPOS>BOND
     1     1     2 1   
     2     1    11 1   
     3     1    12 1   
     4     2     3 1   
     5     2     8 2   
     6     3     4 ar  
     7     3     7 ar  
     8     4     5 ar  
     9     4    13 1   
    10     5     6 ar  
    11     5    14 1   
    12     6     9 ar  
    13     6    15 1   
    14     7     9 ar  
    15     7    10 1   
    16     8    16 1   
    17    10    17 1   
@<TRIPOS>SUBSTRUCTURE
     1 A1I         1 TEMP              0 ****  ****    0 ROOT
