@<TRIPOS>MOLECULE
A1I
   31    32     1     0     0
SMALL
abcg2


@<TRIPOS>ATOM
      1 N1          -6.0310   -12.3980    12.3040 n7         1 A1I      -0.873400
      2 C2          -4.6950   -12.5390     9.7010 ca         1 A1I      -0.057000
      3 C4          -6.0150   -13.6410    11.5560 c3         1 A1I       0.215100
      4 C5          -7.1400   -12.2950    13.2290 c3         1 A1I       0.216100
      5 C6          -8.4310   -12.0160    12.5040 ca         1 A1I      -0.137300
      6 N2          -9.6320   -10.6550    10.9380 nb         1 A1I      -0.669000
      7 C7          -8.5250   -10.9620    11.5980 ca         1 A1I       0.372900
      8 C8         -10.7200   -11.3860    11.1410 ca         1 A1I       0.366900
      9 C           -2.9550   -13.7030     8.4830 ca         1 A1I       0.289000
     10 C1          -3.7290   -12.5590     8.7090 ca         1 A1I      -0.180000
     11 C10         -9.5680   -12.7830    12.7120 ca         1 A1I      -0.050000
     12 C11         -4.1600   -14.7840    10.2820 ca         1 A1I      -0.057000
     13 C12         -3.1900   -14.8200     9.2910 ca         1 A1I      -0.180000
     14 C3          -4.9350   -13.6510    10.5070 ca         1 A1I      -0.137300
     15 C9         -10.7250   -12.4570    12.0210 ca         1 A1I      -0.082900
     16 BR         -12.3000   -13.4600    12.2650 br         1 A1I      -0.083100
     17 H1          -5.1600   -12.2940    12.8090 hn         1 A1I       0.423000
     18 H3          -5.2760   -11.6370     9.8490 ha         1 A1I       0.114500
     19 H4          -6.9920   -13.7490    11.0730 h1         1 A1I       0.036200
     20 H5          -5.9040   -14.5240    12.2040 h1         1 A1I       0.036200
     21 H6          -7.2720   -13.1850    13.8620 h1         1 A1I       0.040700
     22 H7          -6.9330   -11.4620    13.9050 h1         1 A1I       0.040700
     23 H8          -1.7100   -14.6160     7.1640 hn         1 A1I       0.445500
     24 H9          -2.0610   -13.0310     6.7910 hn         1 A1I       0.445500
     25 H10         -7.6560   -10.3450    11.3980 h4         1 A1I       0.035100
     26 H11        -11.6110   -11.1110    10.5870 h4         1 A1I       0.034100
     27 H12         -3.5700   -11.6770     8.0990 ha         1 A1I       0.111500
     28 H13         -9.5430   -13.6190    13.4010 ha         1 A1I       0.130000
     29 H14         -4.3150   -15.6660    10.8930 ha         1 A1I       0.114500
     30 H15         -2.6030   -15.7200     9.1460 ha         1 A1I       0.111500
     31 N           -1.9560   -13.7090     7.5290 nv         1 A1I      -1.070000
@<TRIPOS>BOND
     1     1     3 1   
     2     1     4 1   
     3     1    17 1   
     4     2    10 ar  
     5     2    14 ar  
     6     2    18 1   
     7     3    14 1   
     8     3    19 1   
     9     3    20 1   
    10     4     5 1   
    11     4    21 1   
    12     4    22 1   
    13     5     7 ar  
    14     5    11 ar  
    15     6     7 ar  
    16     6     8 ar  
    17     7    25 1   
    18     8    15 ar  
    19     8    26 1   
    20     9    10 ar  
    21     9    13 ar  
    22     9    31 1   
    23    10    27 1   
    24    11    15 ar  
    25    11    28 1   
    26    12    13 ar  
    27    12    14 ar  
    28    12    29 1   
    29    13    30 1   
    30    15    16 1   
    31    23    31 1   
    32    24    31 1   
@<TRIPOS>SUBSTRUCTURE
     1 A1I         1 TEMP              0 ****  ****    0 ROOT
