@<TRIPOS>MOLECULE
A1I
   23    23     1     0     0
SMALL
abcg2


@<TRIPOS>ATOM
      1 N           14.4350     1.5760    12.4950 n8         1 A1I      -0.971200
      2 CA          14.0820     0.1620    12.5430 c3         1 A1I       0.020500
      3 CB          13.2680    -0.0730    13.8250 c3         1 A1I      -0.018100
      4 CG          12.8900    -1.5090    14.0410 ca         1 A1I      -0.025300
      5 CD1         13.8270    -2.4350    14.4930 ca         1 A1I      -0.084500
      6 CE1         13.4980    -3.7690    14.6820 ca         1 A1I      -0.110000
      7 CZ          12.2020    -4.2090    14.4220 ca         1 A1I      -0.088000
      8 S1          11.6970    -5.8880    14.6450 sh         1 A1I      -0.233800
      9 CE2         11.2530    -3.2960    13.9720 ca         1 A1I      -0.110000
     10 CD2         11.6010    -1.9660    13.7870 ca         1 A1I      -0.084500
     11 C           13.2450    -0.2560    11.3080 c          1 A1I       0.715000
     12 O           13.5340    -1.3540    10.7940 o          1 A1I      -0.720000
     13 H           15.0910     1.7750    13.2420 hn         1 A1I       0.363000
     14 H2          14.9360     1.7740    11.6370 hn         1 A1I       0.363000
     15 HA          14.9650    -0.4920    12.5840 h1         1 A1I       0.003700
     16 HB1         13.8570     0.2790    14.6780 hc         1 A1I       0.036200
     17 HB2         12.3710     0.5500    13.7850 hc         1 A1I       0.036200
     18 H7          14.8390    -2.1120    14.7060 ha         1 A1I       0.115000
     19 H8          14.2510    -4.4620    15.0370 ha         1 A1I       0.101000
     20 H9          12.8750    -6.3850    15.0340 hs         1 A1I       0.195800
     21 H10         10.2390    -3.6180    13.7650 ha         1 A1I       0.101000
     22 H11         10.8490    -1.2700    13.4330 ha         1 A1I       0.115000
     23 OXT         12.3410     0.5240    10.9510 o          1 A1I      -0.720000
@<TRIPOS>BOND
     1     1     2 1   
     2     1    13 1   
     3     1    14 1   
     4     2     3 1   
     5     2    11 1   
     6     2    15 1   
     7     3     4 1   
     8     3    16 1   
     9     3    17 1   
    10     4     5 ar  
    11     4    10 ar  
    12     5     6 ar  
    13     5    18 1   
    14     6     7 ar  
    15     6    19 1   
    16     7     8 1   
    17     7     9 ar  
    18     8    20 1   
    19     9    10 ar  
    20     9    21 1   
    21    10    22 1   
    22    11    12 1   
    23    11    23 1   
@<TRIPOS>SUBSTRUCTURE
     1 A1I         1 TEMP              0 ****  ****    0 ROOT
