@<TRIPOS>MOLECULE
A1I
   25    26     1     0     0
SMALL
abcg2


@<TRIPOS>ATOM
      1 C02         -7.1940     1.7770     5.6810 c6         1 A1I       0.086000
      2 C01         -6.9970     2.6230     4.4380 c6         1 A1I       0.141800
      3 N06         -5.7990     3.4480     4.5520 n7         1 A1I      -0.860400
      4 C05         -4.7510     2.8170     5.3420 c6         1 A1I       0.141800
      5 C04         -4.7890     1.2950     5.3120 c6         1 A1I       0.086000
      6 N03         -6.0790     0.8460     5.8350 n          1 A1I      -0.404800
      7 C07         -6.2610    -0.2250     6.6310 c          1 A1I       0.538600
      8 O13         -7.2720    -0.3840     7.3070 o          1 A1I      -0.589100
      9 C08         -5.2140    -1.2660     6.6890 cc         1 A1I       0.059500
     10 O12         -4.4350    -1.5380     5.6190 os         1 A1I      -0.231000
     11 C11         -3.6330    -2.5640     5.9520 cc         1 A1I       0.135900
     12 C10         -3.8790    -2.9640     7.2240 cd         1 A1I      -0.197000
     13 C09         -4.9200    -2.1220     7.7020 cd         1 A1I      -0.114000
     14 H1          -7.2900     2.4190     6.5620 h1         1 A1I       0.059200
     15 H2          -8.1220     1.2150     5.5880 h1         1 A1I       0.059200
     16 H3          -6.9710     1.9560     3.5660 h1         1 A1I       0.050700
     17 H4          -7.8780     3.2570     4.3160 h1         1 A1I       0.050700
     18 H5          -5.4490     3.6520     3.6270 hn         1 A1I       0.412000
     19 H7          -4.8200     3.1410     6.3860 h1         1 A1I       0.050700
     20 H8          -3.7790     3.1520     4.9800 h1         1 A1I       0.050700
     21 H9          -4.6290     0.9360     4.2910 h1         1 A1I       0.059200
     22 H10         -3.9780     0.9150     5.9310 h1         1 A1I       0.059200
     23 H11         -2.9480    -2.9060     5.1940 h4         1 A1I       0.054100
     24 H12         -3.3830    -3.7610     7.7520 ha         1 A1I       0.146000
     25 H13         -5.3840    -2.1430     8.6750 ha         1 A1I       0.156000
@<TRIPOS>BOND
     1     1     2 1   
     2     1     6 1   
     3     1    14 1   
     4     1    15 1   
     5     2     3 1   
     6     2    16 1   
     7     2    17 1   
     8     3     4 1   
     9     3    18 1   
    10     4     5 1   
    11     4    19 1   
    12     4    20 1   
    13     5     6 1   
    14     5    21 1   
    15     5    22 1   
    16     6     7 1   
    17     7     8 2   
    18     7     9 1   
    19     9    10 1   
    20     9    13 2   
    21    10    11 1   
    22    11    12 2   
    23    11    23 1   
    24    12    13 1   
    25    12    24 1   
    26    13    25 1   
@<TRIPOS>SUBSTRUCTURE
     1 A1I         1 TEMP              0 ****  ****    0 ROOT
