@<TRIPOS>MOLECULE
A1I
   17    18     1     0     0
SMALL
abcg2


@<TRIPOS>ATOM
      1 C01          9.1940    12.9250    35.0950 ca         1 A1I      -0.055000
      2 C02          8.0340    13.7040    34.9160 ca         1 A1I      -0.164000
      3 C03          6.7940    13.1210    35.0140 ca         1 A1I       0.182100
      4 C04          6.7060    11.7320    35.2980 ca         1 A1I       0.138000
      5 C05          7.8780    10.9630    35.4750 ca         1 A1I       0.266000
      6 C06          9.1380    11.5830    35.3700 ca         1 A1I      -0.122000
      7 C08          6.5820     9.1320    35.8280 ca         1 A1I       0.307900
      8 C09          5.4120     9.9100    35.6490 ca         1 A1I       0.294900
      9 N07          7.7790     9.6390    35.7450 nb         1 A1I      -0.627000
     10 N10          5.4780    11.1850    35.3890 nb         1 A1I      -0.649000
     11 O11          5.6760    13.8330    34.8460 oh         1 A1I      -0.521100
     12 H1          10.1560    13.4140    35.0100 ha         1 A1I       0.120000
     13 H2           8.1200    14.7610    34.7000 ha         1 A1I       0.135000
     14 H3          10.0340    10.9920    35.5060 ha         1 A1I       0.137000
     15 H4           6.4940     8.0730    36.0430 h4         1 A1I       0.031100
     16 H5           4.4330     9.4510    35.7260 h4         1 A1I       0.032100
     17 H6           4.9160    13.2390    34.9580 ho         1 A1I       0.496000
@<TRIPOS>BOND
     1     1     2 ar  
     2     1     6 ar  
     3     1    12 1   
     4     2     3 ar  
     5     2    13 1   
     6     3     4 ar  
     7     3    11 1   
     8     4     5 ar  
     9     4    10 ar  
    10     5     6 ar  
    11     5     9 ar  
    12     6    14 1   
    13     7     8 ar  
    14     7     9 ar  
    15     7    15 1   
    16     8    10 ar  
    17     8    16 1   
    18    11    17 1   
@<TRIPOS>SUBSTRUCTURE
     1 A1I         1 TEMP              0 ****  ****    0 ROOT
