@<TRIPOS>MOLECULE
A1I
  110   118     1     0     0
SMALL
abcg2


@<TRIPOS>ATOM
      1 P02        164.4030   161.4460   178.2370 p5         1 A1I       1.295800
      2 O75        165.0590   162.4600   177.2990 o          1 A1I      -0.918500
      3 O01        162.8910   161.6270   178.3650 o          1 A1I      -0.918500
      4 O74        164.8530   160.0000   178.0180 o          1 A1I      -0.918500
      5 P04        164.6780   162.9080   180.9990 p5         1 A1I       1.460700
      6 O73        164.2100   164.1770   180.3390 o          1 A1I      -0.879500
      7 O72        165.7420   162.9780   182.0680 o          1 A1I      -0.879500
      8 N03        165.1010   161.7750   179.8560 n7         1 A1I      -0.924600
      9 P06        162.4140   162.4790   183.0130 p5         1 A1I       1.487800
     10 O70        161.1150   161.7700   182.7880 o          1 A1I      -0.866500
     11 O71        163.1960   162.2560   184.2720 o          1 A1I      -0.866500
     12 O05        163.3240   162.1840   181.7020 os         1 A1I      -0.734800
     13 O07        162.0450   164.0860   182.8790 os         1 A1I      -0.601400
     14 C08        162.9540   165.0960   183.2420 c3         1 A1I       0.232600
     15 C09        162.6710   165.6370   184.6420 c5         1 A1I       0.089300
     16 O13        163.5410   166.7580   184.8670 os         1 A1I      -0.424000
     17 C10        161.2560   166.1780   184.8500 c5         1 A1I       0.231300
     18 O25        160.8950   166.2630   186.2100 os         1 A1I      -0.629400
     19 C11        161.4210   167.6070   184.3490 c5         1 A1I       0.100300
     20 O24        160.4040   168.4570   184.7740 oh         1 A1I      -0.685000
     21 C12        162.8000   167.9460   184.9290 c5         1 A1I       0.265300
     22 N14        163.4960   168.9990   184.2330 na         1 A1I      -0.244300
     23 C18        163.8430   169.0440   182.9080 cc         1 A1I       0.478700
     24 N17        164.4720   170.1310   182.5750 nd         1 A1I      -0.625100
     25 C16        164.5540   170.8490   183.7400 ca         1 A1I      -0.078600
     26 C19        165.1050   172.1060   184.0530 ca         1 A1I       0.413900
     27 N20        165.6950   172.8820   183.1430 nv         1 A1I      -1.102900
     28 N21        165.0240   172.5270   185.3200 nb         1 A1I      -0.353000
     29 C22        164.4290   171.7520   186.2230 ca         1 A1I       0.122900
     30 N23        163.8700   170.5680   186.0490 nb         1 A1I      -0.151000
     31 C15        163.9590   170.1610   184.7850 ca         1 A1I       0.118500
     32 P26        160.4880   164.9500   187.1240 p5         1 A1I       1.387800
     33 O69        160.2510   163.7630   186.2490 o          1 A1I      -0.812000
     34 O68        159.4860   165.4560   188.1110 o          1 A1I      -0.812000
     35 O27        161.9040   164.6340   187.9070 os         1 A1I      -0.559400
     36 C28        162.3790   165.5010   188.9130 c3         1 A1I       0.216600
     37 C29        163.6750   166.1700   188.4690 c5         1 A1I       0.122300
     38 O33        164.0540   167.1380   189.4590 os         1 A1I      -0.482000
     39 C30        164.8850   165.2460   188.3500 c5         1 A1I       0.240300
     40 OP3        165.8470   165.8810   187.5370 os         1 A1I      -0.591400
     41 C31        165.3670   165.2260   189.7980 c5         1 A1I       0.120300
     42 O44        166.6460   164.7210   189.9500 oh         1 A1I      -0.700000
     43 C32        165.1930   166.7140   190.1460 c5         1 A1I       0.260300
     44 N34        164.9920   166.9700   191.5660 na         1 A1I      -0.259300
     45 C38        164.2590   167.9940   192.1040 cc         1 A1I       0.395700
     46 N37        164.3890   168.1060   193.3940 nd         1 A1I      -0.641100
     47 C36        165.2760   167.1190   193.7310 ca         1 A1I      -0.101600
     48 C39        165.8430   166.7220   194.9560 ca         1 A1I       0.360900
     49 N40        165.5570   167.3250   196.1090 nv         1 A1I      -1.103900
     50 N41        166.7070   165.7000   194.9510 nb         1 A1I      -0.313000
     51 C42        167.0020   165.1090   193.8000 ca         1 A1I       0.113900
     52 N43        166.5350   165.3920   192.5960 nb         1 A1I      -0.232000
     53 C35        165.6690   166.4080   192.6080 ca         1 A1I       0.133500
     54 P          166.6390   165.1710   186.2880 p5         1 A1I       1.334800
     55 OP1        165.8580   164.0170   185.7430 o          1 A1I      -0.750000
     56 OP2        167.1160   166.2860   185.4140 o          1 A1I      -0.750000
     57 O5         167.9190   164.5870   187.1430 os         1 A1I      -0.613400
     58 C5         168.9190   163.8550   186.4840 c3         1 A1I       0.226600
     59 C4         170.0940   163.6630   187.4190 c5         1 A1I       0.161300
     60 O4         170.7520   164.9040   187.6830 os         1 A1I      -0.445000
     61 C3         169.7200   163.0960   188.7890 c5         1 A1I       0.096300
     62 O3         169.8130   161.6940   188.7620 oh         1 A1I      -0.724000
     63 C2         170.7460   163.7520   189.7160 c5         1 A1I       0.082300
     64 O2         171.9820   163.0920   189.6460 oh         1 A1I      -0.745000
     65 C1         170.9290   165.1120   189.0460 c5         1 A1I       0.335300
     66 N9         169.9580   166.1100   189.5110 na         1 A1I      -0.299300
     67 C8         169.2260   166.9550   188.7220 cc         1 A1I       0.499700
     68 N7         168.5490   167.8380   189.3970 nd         1 A1I      -0.566100
     69 C7         168.8530   167.5740   190.7050 ca         1 A1I      -0.068600
     70 C6         168.4430   168.1610   191.9140 ca         1 A1I       0.431900
     71 N6         167.5720   169.1750   191.9630 nv         1 A1I      -1.074900
     72 N1         168.9640   167.6900   193.0500 nb         1 A1I      -0.320000
     73 C13        169.8250   166.6770   192.9930 ca         1 A1I       0.139900
     74 N3         170.2650   166.0310   191.9270 nb         1 A1I      -0.238000
     75 C9         169.7420   166.5130   190.8000 ca         1 A1I       0.097500
     76 H25        165.5910   160.9770   180.2330 hn         1 A1I       0.403000
     77 H5         163.9940   164.7610   183.2160 h1         1 A1I       0.043200
     78 H6         162.8670   165.8980   182.5030 h1         1 A1I       0.043200
     79 H7         162.9120   164.8650   185.3740 h1         1 A1I       0.152700
     80 H1         160.5150   165.6160   184.2770 h1         1 A1I       0.107700
     81 H17        161.4830   167.5770   183.2530 h1         1 A1I       0.046700
     82 H33        160.4360   169.2600   184.2450 ho         1 A1I       0.451000
     83 H9         162.6910   168.2990   185.9600 h2         1 A1I       0.091700
     84 H10        163.6070   168.2360   182.2310 h5         1 A1I       0.117800
     85 H26        166.0790   173.7720   183.4070 hn         1 A1I       0.479500
     86 H27        165.7740   172.5920   182.1840 hn         1 A1I       0.479500
     87 H18        164.4000   172.1510   187.2320 h5         1 A1I       0.011100
     88 H3         161.6530   166.2820   189.1590 h1         1 A1I       0.005200
     89 H4         162.5370   164.9210   189.8280 h1         1 A1I       0.005200
     90 H11        163.5000   166.6950   187.5280 h1         1 A1I       0.123700
     91 H12        164.6200   164.2540   187.9750 h1         1 A1I       0.132700
     92 H13        164.6340   164.6530   190.3870 h1         1 A1I       0.027700
     93 H34        166.8360   164.7530   190.9090 ho         1 A1I       0.510000
     94 H14        166.0740   167.2810   189.8260 h2         1 A1I       0.101700
     95 H15        163.6340   168.6240   191.4900 h5         1 A1I       0.075800
     96 H28        165.9790   167.0090   196.9650 hn         1 A1I       0.472000
     97 H29        164.9050   168.0880   196.1500 hn         1 A1I       0.472000
     98 H16        167.7110   164.2920   193.8560 h5         1 A1I       0.016100
     99 H19        168.5650   162.8600   186.1890 h1         1 A1I       0.055700
    100 H5'        169.2610   164.3580   185.5710 h1         1 A1I       0.055700
    101 H22        170.8050   162.9920   186.9240 h1         1 A1I       0.041700
    102 H21        168.7170   163.4240   189.0760 h1         1 A1I       0.137700
    103 HO3        169.2610   161.3340   189.4630 ho         1 A1I       0.502000
    104 H2         170.3900   163.8340   190.7480 h1         1 A1I       0.078700
    105 HO2        171.7960   162.1510   189.5240 ho         1 A1I       0.511000
    106 H20        171.9290   165.5160   189.2290 h2         1 A1I       0.062700
    107 H8         169.2210   166.8740   187.6490 h5         1 A1I       0.125800
    108 H61        167.2190   169.4900   192.8510 hn         1 A1I       0.498500
    109 H62        167.0980   169.4840   191.1330 hn         1 A1I       0.498500
    110 H23        170.2140   166.3410   193.9480 h5         1 A1I       0.008100
@<TRIPOS>BOND
     1     1     2 1   
     2     1     3 1   
     3     1     4 1   
     4     1     8 1   
     5     5     6 1   
     6     5     7 1   
     7     5     8 1   
     8     5    12 1   
     9     8    76 1   
    10     9    10 1   
    11     9    11 1   
    12     9    12 1   
    13     9    13 1   
    14    13    14 1   
    15    14    15 1   
    16    14    77 1   
    17    14    78 1   
    18    15    16 1   
    19    15    17 1   
    20    15    79 1   
    21    16    21 1   
    22    17    18 1   
    23    17    19 1   
    24    17    80 1   
    25    18    32 1   
    26    19    20 1   
    27    19    21 1   
    28    19    81 1   
    29    20    82 1   
    30    21    22 1   
    31    21    83 1   
    32    22    23 1   
    33    22    31 1   
    34    23    24 2   
    35    23    84 1   
    36    24    25 1   
    37    25    26 ar  
    38    25    31 ar  
    39    26    27 1   
    40    26    28 ar  
    41    27    85 1   
    42    27    86 1   
    43    28    29 ar  
    44    29    30 ar  
    45    29    87 1   
    46    30    31 ar  
    47    32    33 1   
    48    32    34 1   
    49    32    35 1   
    50    35    36 1   
    51    36    37 1   
    52    36    88 1   
    53    36    89 1   
    54    37    38 1   
    55    37    39 1   
    56    37    90 1   
    57    38    43 1   
    58    39    40 1   
    59    39    41 1   
    60    39    91 1   
    61    40    54 1   
    62    41    42 1   
    63    41    43 1   
    64    41    92 1   
    65    42    93 1   
    66    43    44 1   
    67    43    94 1   
    68    44    45 1   
    69    44    53 1   
    70    45    46 2   
    71    45    95 1   
    72    46    47 1   
    73    47    48 ar  
    74    47    53 ar  
    75    48    49 1   
    76    48    50 ar  
    77    49    96 1   
    78    49    97 1   
    79    50    51 ar  
    80    51    52 ar  
    81    51    98 1   
    82    52    53 ar  
    83    54    55 1   
    84    54    56 1   
    85    54    57 1   
    86    57    58 1   
    87    58    59 1   
    88    58    99 1   
    89    58   100 1   
    90    59    60 1   
    91    59    61 1   
    92    59   101 1   
    93    60    65 1   
    94    61    62 1   
    95    61    63 1   
    96    61   102 1   
    97    62   103 1   
    98    63    64 1   
    99    63    65 1   
   100    63   104 1   
   101    64   105 1   
   102    65    66 1   
   103    65   106 1   
   104    66    67 1   
   105    66    75 1   
   106    67    68 2   
   107    67   107 1   
   108    68    69 1   
   109    69    70 ar  
   110    69    75 ar  
   111    70    71 1   
   112    70    72 ar  
   113    71   108 1   
   114    71   109 1   
   115    72    73 ar  
   116    73    74 ar  
   117    73   110 1   
   118    74    75 ar  
@<TRIPOS>SUBSTRUCTURE
     1 A1I         1 TEMP              0 ****  ****    0 ROOT
