@<TRIPOS>MOLECULE
A1I
   14    14     1     0     0
SMALL
abcg2


@<TRIPOS>ATOM
      1 C5         164.1200   151.8510   194.6910 c          1 A1I       0.537200
      2 C2         165.1930   148.4170   193.7540 c3         1 A1I       0.199000
      3 C3         164.8620   149.8430   194.0250 cc         1 A1I       0.109900
      4 C4         164.0180   150.4220   194.8960 cd         1 A1I      -0.389200
      5 N1         166.6230   148.1790   193.8740 n8         1 A1I      -0.989200
      6 N7         164.9590   151.9720   193.5950 ns         1 A1I      -0.337400
      7 O6         163.6110   152.7960   195.2670 o          1 A1I      -0.512000
      8 O8         165.4860   150.7480   193.2560 os         1 A1I      -0.115200
      9 H1         164.7680   148.1450   192.7780 h1         1 A1I       0.057200
     10 H2         164.6670   147.8210   194.4980 h1         1 A1I       0.057200
     11 H3         163.4070   149.9260   195.6310 ha         1 A1I       0.233000
     12 H4         166.7790   147.1820   193.9400 hn         1 A1I       0.406000
     13 H5         167.0960   148.4750   193.0300 hn         1 A1I       0.406000
     14 H7         165.6420   152.7130   193.4960 hn         1 A1I       0.338500
@<TRIPOS>BOND
     1     1     4 1   
     2     1     6 1   
     3     1     7 2   
     4     2     3 1   
     5     2     5 1   
     6     2     9 1   
     7     2    10 1   
     8     3     4 2   
     9     3     8 1   
    10     4    11 1   
    11     5    12 1   
    12     5    13 1   
    13     6     8 1   
    14     6    14 1   
@<TRIPOS>SUBSTRUCTURE
     1 A1I         1 TEMP              0 ****  ****    0 ROOT
