@<TRIPOS>MOLECULE
A1I
   92    98     1     0     0
SMALL
abcg2


@<TRIPOS>ATOM
      1 C4          26.3810     0.7200     3.9290 c3         1 A1I      -0.117100
      2 C5          27.1200     0.4380     1.0040 c5         1 A1I      -0.089400
      3 C6          27.5300    -0.2230    -0.3040 c5         1 A1I      -0.110400
      4 C7          26.8660    -1.5870    -0.1670 c5         1 A1I       0.161800
      5 C10         25.7090    -3.1220     5.6970 ca         1 A1I      -0.327000
      6 N12         23.4940    -2.8950     6.5550 nb         1 A1I      -0.248000
      7 C13         23.3350    -1.9470     5.6630 ca         1 A1I       0.170000
      8 C15         25.4100    -2.0870     4.8240 ca         1 A1I       0.396300
      9 C21         18.6590    -0.7420     6.6780 c6         1 A1I      -0.003000
     10 C22         17.6230    -0.6510     5.5830 cc         1 A1I      -0.023300
     11 C24         16.4050     1.3140     6.6400 c6         1 A1I       0.000900
     12 C26         18.6440     0.5670     7.5060 c6         1 A1I      -0.070400
     13 C28         16.4550    -1.2730     3.6320 cd         1 A1I       0.263000
     14 O1          26.3640    -1.7000     3.9930 os         1 A1I      -0.460300
     15 C2          26.1830    -0.5600     3.1370 c3         1 A1I       0.196300
     16 C3          27.2020    -0.7150     2.0160 c5         1 A1I       0.172500
     17 N8          26.9930    -1.9470     1.2480 n3         1 A1I      -0.720600
     18 C9          27.9980    -2.9600     1.4960 c3         1 A1I       0.162100
     19 C11         24.6950    -3.5070     6.5850 ca         1 A1I       0.412900
     20 N14         24.2220    -1.4920     4.7900 nb         1 A1I      -0.280000
     21 C16         21.9990    -1.3210     5.6230 cc         1 A1I       0.505000
     22 N17         21.0030    -1.6270     6.5010 nc         1 A1I      -0.674000
     23 C18         20.0310    -0.8850     6.0950 cd         1 A1I       0.468300
     24 O19         20.3660    -0.1510     5.0380 os         1 A1I      -0.084700
     25 N20         21.6600    -0.4420     4.7300 nd         1 A1I      -0.328300
     26 C23         16.6200     0.2500     5.6160 cd         1 A1I      -0.203300
     27 C25         17.2330     0.9970     7.8820 c6         1 A1I      -0.069400
     28 S27         15.5410     0.0500     4.2620 ss         1 A1I       0.154000
     29 C29         17.5410    -1.5380     4.4490 cc         1 A1I      -0.158000
     30 C30         18.4670    -2.5540     4.1500 cg         1 A1I       0.348000
     31 N31         16.0640    -1.9300     2.5250 nv         1 A1I      -1.072000
     32 C32         18.3740    -1.9590     7.5670 c3         1 A1I      -0.077100
     33 N33         19.2290    -3.3870     3.8990 n1         1 A1I      -0.467000
     34 N34         24.8540    -4.4790     7.4890 nh         1 A1I      -0.785300
     35 C35         25.8630    -6.0340     8.9320 c5         1 A1I       0.120700
     36 C36         24.3490    -6.2280     8.9400 c5         1 A1I      -0.120400
     37 C37         23.7990    -4.9170     8.3920 c5         1 A1I       0.236800
     38 C38         26.0810    -5.2410     7.6410 c5         1 A1I       0.212800
     39 N39         26.2730    -5.2970    10.1080 ns         1 A1I      -0.528900
     40 C40         27.5870    -5.2240    10.4630 c          1 A1I       0.655100
     41 N41         27.8150    -4.6310    11.6670 ns         1 A1I      -0.488900
     42 C42         29.0700    -4.5450    12.3670 cx         1 A1I       0.063400
     43 C43         28.8290    -3.7490    13.6360 c3         1 A1I       0.178600
     44 O44         30.0030    -3.6470    14.3850 os         1 A1I      -0.446000
     45 C45         29.8300    -2.9020    15.5630 c3         1 A1I       0.147900
     46 C46         30.0600    -5.6670    12.3900 cx         1 A1I      -0.122900
     47 C47         30.3770    -4.3790    11.6660 cx         1 A1I      -0.122900
     48 O48         28.4720    -5.6470     9.7260 o          1 A1I      -0.642100
     49 H4C         26.2330     1.5890     3.2890 hc         1 A1I       0.046700
     50 H4A         25.6710     0.7960     4.7510 hc         1 A1I       0.046700
     51 H4B         27.3910     0.7730     4.3400 hc         1 A1I       0.046700
     52 H5A         26.0950     0.8120     0.9280 hc         1 A1I       0.051700
     53 H5B         27.7530     1.2790     1.2880 hc         1 A1I       0.051700
     54 H6A         27.2040     0.3280    -1.1870 hc         1 A1I       0.048200
     55 H6B         28.6160    -0.3290    -0.3580 hc         1 A1I       0.048200
     56 H7A         25.8110    -1.5160    -0.4510 h1         1 A1I       0.049700
     57 H7B         27.3150    -2.3510    -0.8040 h1         1 A1I       0.049700
     58 H10         26.6810    -3.5910     5.6810 ha         1 A1I       0.144000
     59 H24A        16.6950     2.2870     6.2310 hc         1 A1I       0.053700
     60 H24B        15.3470     1.3920     6.9020 hc         1 A1I       0.053700
     61 H26A        19.2520     0.4190     8.4010 hc         1 A1I       0.058200
     62 H26B        19.1110     1.3710     6.9310 hc         1 A1I       0.058200
     63 H2          25.1780    -0.5860     2.7050 h1         1 A1I       0.084700
     64 H3          28.2070    -0.7180     2.4640 h1         1 A1I       0.046700
     65 H9C         27.7430    -3.8780     0.9660 h1         1 A1I       0.030700
     66 H9A         29.0130    -2.6650     1.1860 h1         1 A1I       0.030700
     67 H9B         28.0370    -3.2000     2.5580 h1         1 A1I       0.030700
     68 H25A        17.2850     1.8790     8.5200 hc         1 A1I       0.047700
     69 H25B        16.7380     0.2190     8.4670 hc         1 A1I       0.047700
     70 H31A        15.4120    -1.4970     1.8920 hn         1 A1I       0.486500
     71 H31B        16.7130    -2.5660     2.0890 hn         1 A1I       0.486500
     72 H32C        17.3790    -1.8770     7.9990 hc         1 A1I       0.051700
     73 H32A        18.4130    -2.8890     7.0000 hc         1 A1I       0.051700
     74 H32B        19.0970    -2.0270     8.3790 hc         1 A1I       0.051700
     75 H35         26.3900    -6.9890     8.8860 h1         1 A1I       0.078700
     76 H36A        24.0970    -7.0490     8.2680 hc         1 A1I       0.062200
     77 H36B        23.9530    -6.4750     9.9250 hc         1 A1I       0.062200
     78 H37A        23.6300    -4.1800     9.1830 h1         1 A1I       0.063700
     79 H37B        22.8550    -5.0530     7.8660 h1         1 A1I       0.063700
     80 H38A        26.2310    -5.9200     6.7950 h1         1 A1I       0.067200
     81 H38B        26.9550    -4.5910     7.7060 h1         1 A1I       0.067200
     82 H39         25.5600    -5.0380    10.7710 hn         1 A1I       0.309500
     83 H41         27.0070    -4.4710    12.2490 hn         1 A1I       0.298500
     84 H43A        28.4490    -2.7530    13.3610 h1         1 A1I       0.023700
     85 H43B        28.0360    -4.2410    14.2240 h1         1 A1I       0.023700
     86 H45A        30.7860    -2.8720    16.0830 h1         1 A1I       0.031033
     87 H45B        29.5150    -1.8720    15.3550 h1         1 A1I       0.031033
     88 H45C        29.0860    -3.3530    16.2290 h1         1 A1I       0.031033
     89 H46A        30.5740    -5.8830    13.3180 hc         1 A1I       0.086950
     90 H46B        29.8540    -6.5370    11.7820 hc         1 A1I       0.086950
     91 H47A        30.3990    -4.4060    10.5870 hc         1 A1I       0.086950
     92 H47B        31.0980    -3.7070    12.1120 hc         1 A1I       0.086950
@<TRIPOS>BOND
     1     1    15 1   
     2     1    49 1   
     3     1    50 1   
     4     1    51 1   
     5     2     3 1   
     6     2    16 1   
     7     2    52 1   
     8     2    53 1   
     9     3     4 1   
    10     3    54 1   
    11     3    55 1   
    12     4    17 1   
    13     4    56 1   
    14     4    57 1   
    15     5     8 ar  
    16     5    19 ar  
    17     5    58 1   
    18     6     7 ar  
    19     6    19 ar  
    20     7    20 ar  
    21     7    21 1   
    22     8    14 1   
    23     8    20 ar  
    24     9    10 1   
    25     9    12 1   
    26     9    23 1   
    27     9    32 1   
    28    10    26 2   
    29    10    29 1   
    30    11    26 1   
    31    11    27 1   
    32    11    59 1   
    33    11    60 1   
    34    12    27 1   
    35    12    61 1   
    36    12    62 1   
    37    13    28 1   
    38    13    29 2   
    39    13    31 1   
    40    14    15 1   
    41    15    16 1   
    42    15    63 1   
    43    16    17 1   
    44    16    64 1   
    45    17    18 1   
    46    18    65 1   
    47    18    66 1   
    48    18    67 1   
    49    19    34 1   
    50    21    22 1   
    51    21    25 2   
    52    22    23 2   
    53    23    24 1   
    54    24    25 1   
    55    26    28 1   
    56    27    68 1   
    57    27    69 1   
    58    29    30 1   
    59    30    33 3   
    60    31    70 1   
    61    31    71 1   
    62    32    72 1   
    63    32    73 1   
    64    32    74 1   
    65    34    37 1   
    66    34    38 1   
    67    35    36 1   
    68    35    38 1   
    69    35    39 1   
    70    35    75 1   
    71    36    37 1   
    72    36    76 1   
    73    36    77 1   
    74    37    78 1   
    75    37    79 1   
    76    38    80 1   
    77    38    81 1   
    78    39    40 1   
    79    39    82 1   
    80    40    41 1   
    81    40    48 2   
    82    41    42 1   
    83    41    83 1   
    84    42    43 1   
    85    42    46 1   
    86    42    47 1   
    87    43    44 1   
    88    43    84 1   
    89    43    85 1   
    90    44    45 1   
    91    45    86 1   
    92    45    87 1   
    93    45    88 1   
    94    46    47 1   
    95    46    89 1   
    96    46    90 1   
    97    47    91 1   
    98    47    92 1   
@<TRIPOS>SUBSTRUCTURE
     1 A1I         1 TEMP              0 ****  ****    0 ROOT
