@<TRIPOS>MOLECULE
A1I
   36    38     1     0     0
SMALL
abcg2


@<TRIPOS>ATOM
      1 C02         17.1660    -3.8410     8.4920 c          1 A1I       0.593300
      2 C04         16.7300    -1.7760     7.2130 c3         1 A1I      -0.153000
      3 C05         15.9470    -0.8790     8.1230 ca         1 A1I       0.022700
      4 C06         14.6860    -1.2440     8.5880 ca         1 A1I      -0.089000
      5 C07         13.9230    -0.4110     9.3980 ca         1 A1I      -0.157000
      6 C08         14.4200     0.8310     9.7580 ca         1 A1I      -0.136000
      7 C09         15.6740     1.2250     9.3080 ca         1 A1I      -0.223000
      8 C10         16.4280     0.3850     8.4930 ca         1 A1I       0.145100
      9 C16         16.7160    -5.2490     8.6820 cc         1 A1I      -0.098400
     10 C17         15.4190    -5.6410     8.6210 cd         1 A1I      -0.122400
     11 C19         16.8890    -7.5440     9.1840 ca         1 A1I      -0.164000
     12 C20         17.5290    -8.7430     9.4860 ca         1 A1I      -0.100000
     13 C21         18.9030    -8.7330     9.6200 ca         1 A1I      -0.124000
     14 C22         19.6280    -7.5460     9.4560 ca         1 A1I      -0.143000
     15 C23         18.9900    -6.3590     9.1620 ca         1 A1I      -0.037000
     16 C24         17.5960    -6.3400     9.0210 ca         1 A1I      -0.028800
     17 N03         16.5300    -3.1730     7.5280 ns         1 A1I      -0.401900
     18 O01         18.0610    -3.3700     9.1870 o          1 A1I      -0.673100
     19 O11         17.6570     0.7480     8.0550 oh         1 A1I      -0.504100
     20 P12         16.2080    -1.5950     5.3780 p5         1 A1I       1.267500
     21 S18         15.1850    -7.3140     8.9540 ss         1 A1I      -0.021600
     22 H1          17.7940    -1.5480     7.2900 h1         1 A1I       0.080700
     23 H2          14.2910    -2.2160     8.3210 ha         1 A1I       0.115000
     24 H3          12.9490    -0.7330     9.7410 ha         1 A1I       0.075000
     25 H4          13.8450     1.4950    10.3900 ha         1 A1I       0.066000
     26 H5          16.0700     2.1940     9.5940 ha         1 A1I       0.071000
     27 H6          14.5590    -5.0190     8.4150 h4         1 A1I       0.238000
     28 H7          16.9660    -9.6600     9.6070 ha         1 A1I       0.099000
     29 H8          19.4240    -9.6520     9.8520 ha         1 A1I       0.087000
     30 H9          20.7040    -7.5610     9.5630 ha         1 A1I       0.097000
     31 H10         19.5610    -5.4490     9.0430 ha         1 A1I       0.151000
     32 H11         15.8360    -3.6320     6.9500 hn         1 A1I       0.353500
     33 H12         17.8860     1.6180     8.3990 ho         1 A1I       0.422000
     34 O13         17.3980    -2.1660     4.6070 o          1 A1I      -0.902167
     35 O14         15.9500    -0.1080     5.1640 o          1 A1I      -0.902167
     36 O15         14.9490    -2.4800     5.3380 o          1 A1I      -0.902167
@<TRIPOS>BOND
     1     1     9 1   
     2     1    17 1   
     3     1    18 2   
     4     2     3 1   
     5     2    17 1   
     6     2    20 1   
     7     2    22 1   
     8     3     4 ar  
     9     3     8 ar  
    10     4     5 ar  
    11     4    23 1   
    12     5     6 ar  
    13     5    24 1   
    14     6     7 ar  
    15     6    25 1   
    16     7     8 ar  
    17     7    26 1   
    18     8    19 1   
    19     9    10 2   
    20     9    16 1   
    21    10    21 1   
    22    10    27 1   
    23    11    12 ar  
    24    11    16 ar  
    25    11    21 1   
    26    12    13 ar  
    27    12    28 1   
    28    13    14 ar  
    29    13    29 1   
    30    14    15 ar  
    31    14    30 1   
    32    15    16 ar  
    33    15    31 1   
    34    17    32 1   
    35    19    33 1   
    36    20    34 1   
    37    20    35 1   
    38    20    36 1   
@<TRIPOS>SUBSTRUCTURE
     1 A1I         1 TEMP              0 ****  ****    0 ROOT
