@<TRIPOS>MOLECULE
A1I
   53    54     1     0     0
SMALL
abcg2


@<TRIPOS>ATOM
      1 N12          6.3920    -2.3250   -19.6250 ns         1 A1I      -0.516900
      2 C13          7.2930    -3.2070   -20.2990 c3         1 A1I       0.049700
      3 C15          5.6070    -3.4820   -22.1580 ca         1 A1I       0.391300
      4 C17          3.7410    -4.9820   -22.2240 ca         1 A1I      -0.080000
      5 C21          8.7850    -2.9330   -20.0640 c          1 A1I       0.584100
      6 C24         10.5130     0.0420   -18.8170 ca         1 A1I      -0.113000
      7 C02          5.9300    -2.5510   -18.3650 c          1 A1I       0.642100
      8 C03          5.3110    -1.3540   -17.7120 c3         1 A1I      -0.454700
      9 C04          4.2820    -0.5870   -18.5490 c3         1 A1I      -0.021400
     10 C05          2.8790    -1.1950   -18.6080 c3         1 A1I      -0.066700
     11 C06          1.9590    -0.2830   -19.4150 c3         1 A1I      -0.080600
     12 C07          2.8540    -2.6070   -19.1840 c3         1 A1I      -0.080600
     13 C14          7.0380    -3.1770   -21.8150 c3         1 A1I      -0.142700
     14 C16          5.0590    -4.7330   -21.8820 ca         1 A1I      -0.150000
     15 C18          3.0070    -3.9750   -22.8350 ca         1 A1I      -0.190000
     16 C19          3.6360    -2.7630   -23.0660 ca         1 A1I       0.336900
     17 C23         10.4080    -1.2620   -19.3170 ca         1 A1I       0.040000
     18 C25         11.7460     0.6290   -18.6210 ca         1 A1I       0.141000
     19 C27         12.9160    -0.0650   -18.9070 ca         1 A1I       0.054000
     20 C29         12.8190    -1.3570   -19.3930 ca         1 A1I      -0.097000
     21 C30         11.5880    -1.9590   -19.5990 ca         1 A1I      -0.170000
     22 N20          4.9010    -2.5160   -22.7360 nb         1 A1I      -0.665000
     23 N22          9.1130    -1.7470   -19.5050 ns         1 A1I      -0.137000
     24 O01          6.0720    -3.6370   -17.8140 o          1 A1I      -0.662100
     25 O31          9.5870    -3.7770   -20.4380 o          1 A1I      -0.681100
     26 P08          6.7580    -0.2310   -17.1910 p5         1 A1I       1.288500
     27 CL1         11.8130     2.2440   -18.0160 cl         1 A1I      -0.218000
     28 CL2         14.4650     0.6570   -18.6680 cl         1 A1I      -0.253000
     29 H121         6.3900    -1.3610   -19.9260 hn         1 A1I       0.344500
     30 H131         7.1130    -4.2180   -19.9300 h1         1 A1I       0.084700
     31 H171         3.2940    -5.9470   -22.0210 ha         1 A1I       0.101000
     32 H031         4.8300    -1.6980   -16.7900 hc         1 A1I       0.068700
     33 H041         4.6370    -0.4330   -19.5730 hc         1 A1I       0.044200
     34 H042         4.1900     0.4160   -18.1240 hc         1 A1I       0.044200
     35 H051         2.4960    -1.2430   -17.5810 hc         1 A1I       0.034700
     36 H062         1.9550     0.7340   -19.0190 hc         1 A1I       0.017200
     37 H063         2.2850    -0.2300   -20.4570 hc         1 A1I       0.017200
     38 H061         0.9290    -0.6460   -19.4110 hc         1 A1I       0.017200
     39 H073         3.4110    -3.3130   -18.5690 hc         1 A1I       0.017200
     40 H071         1.8290    -2.9770   -19.2560 hc         1 A1I       0.017200
     41 H072         3.2810    -2.6270   -20.1890 hc         1 A1I       0.017200
     42 H142         7.6970    -3.9010   -22.2970 hc         1 A1I       0.063200
     43 H141         7.2900    -2.1910   -22.2120 hc         1 A1I       0.063200
     44 H161         5.6600    -5.5000   -21.4100 ha         1 A1I       0.128000
     45 H181         1.9760    -4.1220   -23.1240 ha         1 A1I       0.102000
     46 H191         3.0970    -1.9500   -23.5400 h4         1 A1I       0.003100
     47 H291        13.7210    -1.9100   -19.6170 ha         1 A1I       0.096000
     48 H301        11.5650    -2.9650   -19.9790 ha         1 A1I       0.141000
     49 H221         8.3630    -1.0780   -19.1640 hn         1 A1I       0.267000
     50 O09          7.6560    -1.1030   -16.3210 o          1 A1I      -0.882500
     51 O10          6.1120     0.9610   -16.4980 o          1 A1I      -0.882500
     52 O11          7.4080     0.1290   -18.5650 o          1 A1I      -0.882500
     53 H241         9.6060     0.5890   -18.5880 ha         1 A1I       0.211000
@<TRIPOS>BOND
     1     1     2 1   
     2     1     7 1   
     3     1    29 1   
     4     2     5 1   
     5     2    13 1   
     6     2    30 1   
     7     3    13 1   
     8     3    14 ar  
     9     3    22 ar  
    10     4    14 ar  
    11     4    15 ar  
    12     4    31 1   
    13     5    23 1   
    14     5    25 2   
    15     6    17 ar  
    16     6    18 ar  
    17     6    53 1   
    18     7     8 1   
    19     7    24 2   
    20     8     9 1   
    21     8    26 1   
    22     8    32 1   
    23     9    10 1   
    24     9    33 1   
    25     9    34 1   
    26    10    11 1   
    27    10    12 1   
    28    10    35 1   
    29    11    36 1   
    30    11    37 1   
    31    11    38 1   
    32    12    39 1   
    33    12    40 1   
    34    12    41 1   
    35    13    42 1   
    36    13    43 1   
    37    14    44 1   
    38    15    16 ar  
    39    15    45 1   
    40    16    22 ar  
    41    16    46 1   
    42    17    21 ar  
    43    17    23 1   
    44    18    19 ar  
    45    18    27 1   
    46    19    20 ar  
    47    19    28 1   
    48    20    21 ar  
    49    20    47 1   
    50    21    48 1   
    51    23    49 1   
    52    26    50 1   
    53    26    51 1   
    54    26    52 1   
@<TRIPOS>SUBSTRUCTURE
     1 A1I         1 TEMP              0 ****  ****    0 ROOT
