@<TRIPOS>MOLECULE
A1I
   54    58     1     0     0
SMALL
abcg2


@<TRIPOS>ATOM
      1 C2         -18.0890    11.3960   -11.1030 ca         1 A1I       0.171000
      2 C3         -17.7080    10.1430   -10.6650 ca         1 A1I      -0.145000
      3 C4         -17.9170     9.8320    -9.3340 ca         1 A1I      -0.075000
      4 C5         -18.4930    10.7440    -8.4470 ca         1 A1I      -0.107500
      5 C6         -18.7270    10.3140    -7.0580 cc         1 A1I       0.288500
      6 C11        -19.5500     9.2510    -6.6290 cc         1 A1I      -0.181300
      7 C12        -20.3900     8.3360    -7.4710 c3         1 A1I       0.089200
      8 C15        -22.7730    10.2980    -8.3600 ca         1 A1I      -0.132000
      9 C16        -21.8650    11.3110    -8.0240 ca         1 A1I      -0.072000
     10 C17        -21.6870    12.3830    -8.8590 ca         1 A1I       0.010100
     11 C19        -19.5550    13.0380    -8.0510 c3         1 A1I       0.220600
     12 C21        -18.7510    14.3130    -7.8980 c3         1 A1I      -0.086100
     13 C23        -18.6620    12.3240   -10.2620 ca         1 A1I      -0.131000
     14 C24        -22.4640    12.4520   -10.0410 ca         1 A1I       0.610900
     15 C27        -23.4810    10.4570    -9.5380 ca         1 A1I       0.388900
     16 C30        -26.2290     8.2960    -7.9310 c3         1 A1I      -0.111100
     17 C32        -22.4920     7.3570    -6.2780 cc         1 A1I       0.338000
     18 F1         -17.9010    11.7170   -12.3930 f          1 A1I      -0.178000
     19 N7         -18.1630    10.9300    -6.0270 nd         1 A1I      -0.520800
     20 N8         -18.6020    10.2920    -4.9510 na         1 A1I       0.134800
     21 C9         -18.1570    10.7010    -3.6400 c3         1 A1I       0.072900
     22 C10        -19.4330     9.2800    -5.2560 cd         1 A1I      -0.159000
     23 C13        -21.8350     8.2840    -7.0910 cc         1 A1I      -0.182300
     24 C14        -22.8650     9.1170    -7.5040 cd         1 A1I      -0.057000
     25 O18        -20.8110    13.3950    -8.6390 os         1 A1I      -0.361100
     26 C22        -18.8660    12.0070    -8.9200 ca         1 A1I      -0.075300
     27 N25        -22.2910    13.4720   -10.9180 nv         1 A1I      -1.053900
     28 N26        -23.3440    11.5060   -10.3420 nb         1 A1I      -0.744000
     29 N28        -23.9990     8.6490    -6.9340 na         1 A1I       0.142800
     30 C29        -25.3510     9.1620    -7.0470 c3         1 A1I       0.086600
     31 N31        -23.7840     7.5700    -6.1860 nd         1 A1I      -0.510800
     32 CL33       -21.7620     6.0450    -5.4510 cl         1 A1I      -0.150000
     33 H1         -17.2610     9.4290   -11.3440 ha         1 A1I       0.134000
     34 H2         -17.6250     8.8540    -8.9700 ha         1 A1I       0.124000
     35 H3         -19.9830     7.3220    -7.4360 hc         1 A1I       0.060200
     36 H4         -20.3110     8.6470    -8.5140 hc         1 A1I       0.060200
     37 H5         -21.3100    11.2340    -7.0980 ha         1 A1I       0.138000
     38 H6         -19.7220    12.6310    -7.0510 h1         1 A1I       0.062700
     39 H7         -17.7970    14.0820    -7.4250 hc         1 A1I       0.050033
     40 H8         -18.5490    14.7890    -8.8580 hc         1 A1I       0.050033
     41 H9         -19.2770    15.0250    -7.2620 hc         1 A1I       0.050033
     42 H10        -18.9590    13.2890   -10.6570 ha         1 A1I       0.137000
     43 H11        -24.1810     9.6960    -9.8670 h4         1 A1I       0.020100
     44 H12        -27.2370     8.7090    -7.9650 hc         1 A1I       0.050700
     45 H13        -25.8480     8.2520    -8.9520 hc         1 A1I       0.050700
     46 H14        -26.2940     7.2790    -7.5450 hc         1 A1I       0.050700
     47 H15        -18.3670    11.7580    -3.4870 h1         1 A1I       0.057700
     48 H16        -18.6890    10.1230    -2.8910 h1         1 A1I       0.057700
     49 H17        -17.0880    10.5290    -3.5270 h1         1 A1I       0.057700
     50 H18        -19.8830     8.6650    -4.4920 h4         1 A1I       0.163000
     51 H19        -23.0000    13.5920   -11.6220 hn         1 A1I       0.485000
     52 H20        -21.8460    14.3170   -10.6050 hn         1 A1I       0.485000
     53 H21        -25.2850    10.1770    -7.4360 h1         1 A1I       0.066700
     54 H22        -25.7640     9.2270    -6.0400 h1         1 A1I       0.066700
@<TRIPOS>BOND
     1     1     2 ar  
     2     1    13 ar  
     3     1    18 1   
     4     2     3 ar  
     5     2    33 1   
     6     3     4 ar  
     7     3    34 1   
     8     4     5 1   
     9     4    26 ar  
    10     5     6 1   
    11     5    19 2   
    12     6     7 1   
    13     6    22 2   
    14     7    23 1   
    15     7    35 1   
    16     7    36 1   
    17     8     9 ar  
    18     8    15 ar  
    19     8    24 1   
    20     9    10 ar  
    21     9    37 1   
    22    10    14 ar  
    23    10    25 1   
    24    11    12 1   
    25    11    25 1   
    26    11    26 1   
    27    11    38 1   
    28    12    39 1   
    29    12    40 1   
    30    12    41 1   
    31    13    26 ar  
    32    13    42 1   
    33    14    27 1   
    34    14    28 ar  
    35    15    28 ar  
    36    15    43 1   
    37    16    30 1   
    38    16    44 1   
    39    16    45 1   
    40    16    46 1   
    41    17    23 1   
    42    17    31 2   
    43    17    32 1   
    44    19    20 1   
    45    20    21 1   
    46    20    22 1   
    47    21    47 1   
    48    21    48 1   
    49    21    49 1   
    50    22    50 1   
    51    23    24 2   
    52    24    29 1   
    53    27    51 1   
    54    27    52 1   
    55    29    30 1   
    56    29    31 1   
    57    30    53 1   
    58    30    54 1   
@<TRIPOS>SUBSTRUCTURE
     1 A1I         1 TEMP              0 ****  ****    0 ROOT
