@<TRIPOS>MOLECULE
A1I
   37    39     1     0     0
SMALL
abcg2


@<TRIPOS>ATOM
      1 C1         -22.5020   -22.0450    -4.2930 c          1 A1I       0.577500
      2 C10        -26.1590   -18.2900    -0.6380 ca         1 A1I      -0.097000
      3 C11        -25.3130   -17.2130    -0.4130 ca         1 A1I      -0.105000
      4 C12        -24.2940   -17.3160     0.5250 ca         1 A1I      -0.098000
      5 C13        -24.1310   -18.4880     1.2490 ca         1 A1I      -0.105000
      6 C14        -24.9700   -19.5670     0.9990 ca         1 A1I       0.247000
      7 C15        -22.2170   -20.9990    -0.6430 ca         1 A1I       0.000000
      8 C16        -21.9760   -21.0660    -2.0080 ca         1 A1I      -0.006900
      9 C2         -22.6950   -21.9410    -2.8230 ca         1 A1I      -0.127600
     10 C3         -23.6580   -22.7610    -2.2320 ca         1 A1I      -0.082000
     11 C4         -23.9120   -22.7140    -0.8770 ca         1 A1I      -0.014000
     12 C5         -23.1910   -21.8200    -0.0990 ca         1 A1I      -0.262500
     13 C6         -26.2020   -21.3110     2.1200 c6         1 A1I       0.190800
     14 C7         -27.1040   -21.6290     0.9300 c6         1 A1I       0.152300
     15 C8         -26.8230   -20.6960    -0.2600 c6         1 A1I      -0.033100
     16 C9         -25.9910   -19.4850     0.0510 ca         1 A1I      -0.089300
     17 N1         -24.8960   -20.7750     1.7410 nh         1 A1I      -0.773300
     18 O4         -26.9470   -22.9510     0.4590 oh         1 A1I      -0.666000
     19 S1         -23.5410   -21.7120     1.6450 sy         1 A1I       1.183600
     20 H1         -21.7110   -21.4240    -4.7340 h4         1 A1I       0.016200
     21 H4         -26.9530   -18.2070    -1.3700 ha         1 A1I       0.117000
     22 H5         -25.4520   -16.2930    -0.9650 ha         1 A1I       0.119000
     23 H6         -23.6360   -16.4770     0.7100 ha         1 A1I       0.122000
     24 H7         -23.3630   -18.5590     2.0060 ha         1 A1I       0.144000
     25 H8         -21.6560   -20.3190    -0.0170 ha         1 A1I       0.157000
     26 H9         -24.2160   -23.4470    -2.8560 ha         1 A1I       0.143000
     27 H10        -24.6750   -23.3450    -0.4450 ha         1 A1I       0.154000
     28 H11        -26.0800   -22.1770     2.7680 h1         1 A1I       0.075700
     29 H12        -26.6720   -20.5350     2.7270 h1         1 A1I       0.075700
     30 H13        -28.1340   -21.4740     1.2750 h1         1 A1I       0.043700
     31 H14        -27.7580   -20.3900    -0.7320 hc         1 A1I       0.067700
     32 H15        -26.2870   -21.2800    -1.0140 hc         1 A1I       0.067700
     33 H16        -27.2200   -23.5590     1.1540 ho         1 A1I       0.455000
     34 O1         -23.1720   -22.7700    -4.9840 o          1 A1I      -0.500100
     35 BR1        -20.6400   -19.9260    -2.6950 br         1 A1I      -0.081100
     36 O2         -22.4310   -21.0010     2.2520 o          1 A1I      -0.533000
     37 O3         -23.8910   -23.0310     2.1380 o          1 A1I      -0.533000
@<TRIPOS>BOND
     1     1     9 1   
     2     1    20 1   
     3     1    34 2   
     4     2     3 ar  
     5     2    16 ar  
     6     2    21 1   
     7     3     4 ar  
     8     3    22 1   
     9     4     5 ar  
    10     4    23 1   
    11     5     6 ar  
    12     5    24 1   
    13     6    16 ar  
    14     6    17 1   
    15     7     8 ar  
    16     7    12 ar  
    17     7    25 1   
    18     8     9 ar  
    19     8    35 1   
    20     9    10 ar  
    21    10    11 ar  
    22    10    26 1   
    23    11    12 ar  
    24    11    27 1   
    25    12    19 1   
    26    13    14 1   
    27    13    17 1   
    28    13    28 1   
    29    13    29 1   
    30    14    15 1   
    31    14    18 1   
    32    14    30 1   
    33    15    16 1   
    34    15    31 1   
    35    15    32 1   
    36    17    19 1   
    37    18    33 1   
    38    19    36 2   
    39    19    37 2   
@<TRIPOS>SUBSTRUCTURE
     1 A1I         1 TEMP              0 ****  ****    0 ROOT
