@<TRIPOS>MOLECULE
A1I
   89    92     1     0     0
SMALL
abcg2


@<TRIPOS>ATOM
      1 C1           7.4070     6.8360    24.7060 c3         1 A1I      -0.088100
      2 C2           8.1370     7.0980    26.0160 c3         1 A1I      -0.075400
      3 C3           9.0360     5.9630    26.4590 c3         1 A1I       0.164600
      4 C4           8.8000     3.6900    27.1400 ca         1 A1I       0.170100
      5 C5          10.1550     3.5550    27.4350 ca         1 A1I      -0.212000
      6 C6          10.6090     2.3700    28.0020 ca         1 A1I      -0.051000
      7 C7           9.7490     1.3240    28.2850 ca         1 A1I      -0.150000
      8 C9           6.5680     0.0600    27.4910 ca         1 A1I       0.098100
      9 C10          6.8020    -0.1170    26.1290 ca         1 A1I      -0.144000
     10 C11          5.7530    -0.5860    25.3700 ca         1 A1I       0.024600
     11 C12          4.5180    -0.9040    25.9430 ca         1 A1I      -0.002400
     12 C13          4.2980    -0.7710    27.2950 ca         1 A1I      -0.084000
     13 C14          5.3400    -0.2580    28.0750 ca         1 A1I       0.227000
     14 C15          4.5820     2.5870    29.2930 ca         1 A1I      -0.314500
     15 C17          4.2860     4.2210    27.5790 ca         1 A1I      -0.143000
     16 C18          5.3060     4.9770    28.1350 ca         1 A1I      -0.027000
     17 O1           8.2420     4.7980    26.6270 os         1 A1I      -0.353100
     18 C8           8.4020     1.4780    27.9790 ca         1 A1I       0.150100
     19 O2           7.5620     0.4580    28.3360 os         1 A1I      -0.263200
     20 N1           5.1700    -0.1010    29.4700 nu         1 A1I      -0.858100
     21 S1           4.1200     1.0520    30.0520 sy         1 A1I       1.144600
     22 O3           2.7930     0.7120    29.5760 o          1 A1I      -0.530000
     23 O4           4.3870     1.1300    31.4760 o          1 A1I      -0.530000
     24 C16          3.9120     3.0170    28.1550 ca         1 A1I       0.010000
     25 C19          5.9790     4.5340    29.2710 ca         1 A1I      -0.170600
     26 C20          7.1420     5.2680    29.8640 c          1 A1I       0.614700
     27 O5           8.0200     4.6610    30.4610 o          1 A1I      -0.595100
     28 N2           7.1540     6.5980    29.6890 ns         1 A1I      -0.505900
     29 C21          8.2350     7.4420    30.1460 c3         1 A1I       0.067000
     30 C22          8.1030     7.7800    31.6320 c3         1 A1I       0.136600
     31 O6           9.0750     8.6940    32.0730 os         1 A1I      -0.454000
     32 C23         10.3870     8.1830    32.1060 c3         1 A1I       0.115600
     33 C24         11.2250     9.1200    32.9660 c3         1 A1I       0.158600
     34 O7          12.5910     8.7920    32.9200 os         1 A1I      -0.464000
     35 C25         12.9850     7.6910    33.7120 c3         1 A1I       0.127600
     36 C26         13.9080     6.7940    32.9060 c3         1 A1I       0.092000
     37 N3          13.2780     6.2530    31.7250 ns         1 A1I      -0.506900
     38 C27         12.4590     5.1870    31.7470 c          1 A1I       0.595100
     39 C28         11.8120     4.8370    30.4310 c3         1 A1I      -0.186100
     40 O8          12.2450     4.5390    32.7630 o          1 A1I      -0.605100
     41 C29          5.6190     3.3210    29.8470 ca         1 A1I       0.038000
     42 N4           3.7090    -1.3600    24.9270 n          1 A1I      -0.289000
     43 C30          2.3440    -1.7910    25.0810 c3         1 A1I       0.102300
     44 C31          4.4010    -1.3480    23.7370 c          1 A1I       0.598000
     45 O9           3.9880    -1.6920    22.6460 o          1 A1I      -0.555000
     46 N5           5.6600    -0.8650    24.0290 n          1 A1I      -0.291000
     47 C32          6.7240    -0.7080    23.0720 c3         1 A1I       0.103300
     48 C33          7.9220     2.6360    27.3960 ca         1 A1I      -0.194000
     49 H1           6.8320     7.7110    24.4040 hc         1 A1I       0.038700
     50 H2           8.1080     6.6080    23.9020 hc         1 A1I       0.038700
     51 H3           6.7120     6.0000    24.7910 hc         1 A1I       0.038700
     52 H4           8.7710     7.9820    25.9160 hc         1 A1I       0.045200
     53 H5           7.4220     7.3250    26.8110 hc         1 A1I       0.045200
     54 H6           9.8180     5.7830    25.7110 h1         1 A1I       0.035700
     55 H7           9.5300     6.2230    27.4020 h1         1 A1I       0.035700
     56 H8          10.8610     4.3490    27.2370 ha         1 A1I       0.116000
     57 H9          11.6630     2.2650    28.2240 ha         1 A1I       0.116000
     58 H10         10.1070     0.4080    28.7350 ha         1 A1I       0.135000
     59 H11          7.7680     0.1060    25.6940 ha         1 A1I       0.142000
     60 H12          3.3610    -1.0560    27.7500 ha         1 A1I       0.159000
     61 H15          3.7800     4.5690    26.6890 ha         1 A1I       0.123000
     62 H16          5.5860     5.9030    27.6510 ha         1 A1I       0.116000
     63 H13          6.0310    -0.1130    30.0090 hn         1 A1I       0.509000
     64 H14          3.1090     2.4350    27.7260 ha         1 A1I       0.142000
     65 H17          6.3430     7.0550    29.3060 hn         1 A1I       0.318500
     66 H18          9.1830     6.9440    29.9390 h1         1 A1I       0.054200
     67 H19          8.2140     8.3570    29.5550 h1         1 A1I       0.054200
     68 H20          7.1310     8.2460    31.8080 h1         1 A1I       0.059700
     69 H21          8.1390     6.8560    32.2240 h1         1 A1I       0.059700
     70 H22         10.3930     7.1650    32.5220 h1         1 A1I       0.033200
     71 H23         10.8260     8.1240    31.1020 h1         1 A1I       0.033200
     72 H24         11.1320    10.1380    32.5810 h1         1 A1I       0.056700
     73 H25         10.8420     9.1250    33.9940 h1         1 A1I       0.056700
     74 H26         13.5180     8.0390    34.6060 h1         1 A1I       0.048200
     75 H27         12.1240     7.1110    34.0590 h1         1 A1I       0.048200
     76 H29         14.2600     5.9820    33.5430 h1         1 A1I       0.062200
     77 H28         14.7890     7.3530    32.5900 h1         1 A1I       0.062200
     78 H30         13.3630     6.7770    30.8700 hn         1 A1I       0.313500
     79 H31         10.7320     4.9660    30.5110 hc         1 A1I       0.062700
     80 H32         12.1670     5.4360    29.5940 hc         1 A1I       0.062700
     81 H33         11.9920     3.7860    30.2060 hc         1 A1I       0.062700
     82 H34          6.1460     2.9650    30.7210 ha         1 A1I       0.155000
     83 H35          2.2840    -2.6570    25.7400 h1         1 A1I       0.055367
     84 H36          1.7340    -0.9900    25.4960 h1         1 A1I       0.055367
     85 H37          1.9460    -2.0650    24.1090 h1         1 A1I       0.055367
     86 H38          7.5860    -1.3130    23.3540 h1         1 A1I       0.053367
     87 H39          6.3750    -1.0310    22.0960 h1         1 A1I       0.053367
     88 H40          7.0330     0.3360    23.0060 h1         1 A1I       0.053367
     89 H41          6.8710     2.7460    27.1570 ha         1 A1I       0.138000
@<TRIPOS>BOND
     1     1     2 1   
     2     1    49 1   
     3     1    50 1   
     4     1    51 1   
     5     2     3 1   
     6     2    52 1   
     7     2    53 1   
     8     3    17 1   
     9     3    54 1   
    10     3    55 1   
    11     4     5 ar  
    12     4    17 1   
    13     4    48 ar  
    14     5     6 ar  
    15     5    56 1   
    16     6     7 ar  
    17     6    57 1   
    18     7    18 ar  
    19     7    58 1   
    20     8     9 ar  
    21     8    13 ar  
    22     8    19 1   
    23     9    10 ar  
    24     9    59 1   
    25    10    11 ar  
    26    10    46 1   
    27    11    12 ar  
    28    11    42 1   
    29    12    13 ar  
    30    12    60 1   
    31    13    20 1   
    32    14    21 1   
    33    14    24 ar  
    34    14    41 ar  
    35    15    16 ar  
    36    15    24 ar  
    37    15    61 1   
    38    16    25 ar  
    39    16    62 1   
    40    18    19 1   
    41    18    48 ar  
    42    20    21 1   
    43    20    63 1   
    44    21    22 2   
    45    21    23 2   
    46    24    64 1   
    47    25    26 1   
    48    25    41 ar  
    49    26    27 2   
    50    26    28 1   
    51    28    29 1   
    52    28    65 1   
    53    29    30 1   
    54    29    66 1   
    55    29    67 1   
    56    30    31 1   
    57    30    68 1   
    58    30    69 1   
    59    31    32 1   
    60    32    33 1   
    61    32    70 1   
    62    32    71 1   
    63    33    34 1   
    64    33    72 1   
    65    33    73 1   
    66    34    35 1   
    67    35    36 1   
    68    35    74 1   
    69    35    75 1   
    70    36    37 1   
    71    36    76 1   
    72    36    77 1   
    73    37    38 1   
    74    37    78 1   
    75    38    39 1   
    76    38    40 2   
    77    39    79 1   
    78    39    80 1   
    79    39    81 1   
    80    41    82 1   
    81    42    43 1   
    82    42    44 1   
    83    43    83 1   
    84    43    84 1   
    85    43    85 1   
    86    44    45 2   
    87    44    46 1   
    88    46    47 1   
    89    47    86 1   
    90    47    87 1   
    91    47    88 1   
    92    48    89 1   
@<TRIPOS>SUBSTRUCTURE
     1 A1I         1 TEMP              0 ****  ****    0 ROOT
