@<TRIPOS>MOLECULE
A1I
  140   152     1     0     0
SMALL
abcg2


@<TRIPOS>ATOM
      1 N1          15.4020    43.0160    -9.5900 n          1 A1I      -0.334000
      2 C7          12.8940    42.6520     0.3720 c5         1 A1I       0.103300
      3 C8          13.2540    40.4550     0.9050 c5         1 A1I       0.132600
      4 N2          14.4180    45.0550    -9.1420 ns         1 A1I      -0.460500
      5 C9          13.4150    40.7660    -0.5820 c5         1 A1I       0.111000
      6 O1           9.4840    43.2340    -0.8370 os         1 A1I      -0.579400
      7 C1          12.0500    45.8220    -3.7100 cc         1 A1I      -0.346800
      8 O5          13.6480    40.1070    -2.8350 os         1 A1I      -0.577400
      9 C5           9.1830    43.7610     0.4630 c3         1 A1I       0.233600
     10 C6          12.3170    41.8220    -0.7670 c5         1 A1I       0.158300
     11 N3          18.2320    41.6930    -1.0440 n          1 A1I      -0.342000
     12 C4           9.4800    45.2280     0.4270 c5         1 A1I       0.074000
     13 O4          12.9370    41.7410     1.4530 os         1 A1I      -0.415000
     14 C3          10.9970    46.7930    -0.2760 c5         1 A1I       0.302700
     15 O3          11.0680    41.2460    -0.4710 os         1 A1I      -0.567400
     16 C2          11.6040    45.7540    -2.4380 cd         1 A1I       0.005600
     17 N4          17.7170    43.3410     0.5560 nc         1 A1I      -0.783100
     18 N           11.5260    46.8500    -1.6410 n          1 A1I      -0.337000
     19 O           10.8630    45.4520     0.1380 os         1 A1I      -0.455000
     20 C10         13.4420    39.5940    -1.5160 c3         1 A1I       0.234600
     21 C11         16.8080    39.7400    -2.8630 c5         1 A1I       0.158300
     22 C12         17.2200    39.4010    -1.4380 c5         1 A1I       0.117300
     23 C13         18.2900    37.9140    -2.8230 c5         1 A1I       0.136600
     24 C14         18.1930    39.3300    -3.3830 c5         1 A1I       0.110000
     25 C15         18.4900    39.5380    -4.8380 c3         1 A1I       0.247600
     26 C16         17.5400    41.2800    -8.3730 c5         1 A1I       0.124300
     27 C17         17.8180    42.3430    -9.4280 c5         1 A1I       0.103300
     28 C18         18.5260    40.3490   -10.2940 c5         1 A1I       0.136600
     29 C19         17.2570    40.2340    -9.4520 c5         1 A1I       0.132000
     30 C20         16.8270    38.8670    -9.0060 c3         1 A1I       0.198600
     31 C21         16.5040    42.2630   -10.2130 c5         1 A1I       0.309700
     32 C22         14.3540    42.4050    -8.9540 cc         1 A1I      -0.010400
     33 C23         13.3260    43.0740    -8.3980 cd         1 A1I      -0.245400
     34 C24         12.1800    42.3840    -7.7320 c3         1 A1I      -0.022900
     35 C25         13.3330    44.5200    -8.4730 c          1 A1I       0.596200
     36 C26         15.4590    44.3840    -9.7230 c          1 A1I       0.620000
     37 C27         18.4770    40.2730    -1.3150 c5         1 A1I       0.305700
     38 C28         18.5020    42.6570    -1.9610 cc         1 A1I       0.010600
     39 C29         18.4020    43.9730    -1.6770 cd         1 A1I      -0.344800
     40 C30         18.7350    45.0300    -2.6810 c3         1 A1I      -0.034900
     41 C31         17.9940    44.2770    -0.3350 cd         1 A1I       0.790500
     42 C32         17.8460    42.0340     0.2570 c          1 A1I       0.713400
     43 C33         14.3380    42.8030    -0.1230 c5         1 A1I       0.286300
     44 C34         14.8600    43.6540    -2.4540 cc         1 A1I       0.410700
     45 C35         15.0720    45.7210    -2.0840 ca         1 A1I      -0.102600
     46 C36         15.3260    47.1020    -2.0760 ca         1 A1I       0.435900
     47 C37         14.7530    47.0980     0.1510 ca         1 A1I       0.172900
     48 C38         14.6840    45.1620    -0.8770 ca         1 A1I       0.125500
     49 C39          9.1710    46.0130     1.6980 c5         1 A1I       0.132600
     50 C40          9.5640    47.3230    -0.1360 c5         1 A1I       0.131300
     51 C41          8.7780    46.1150    -0.6210 c5         1 A1I       0.117300
     52 C42         11.9250    48.1060    -2.1100 c          1 A1I       0.710400
     53 C43         12.4420    47.1290    -4.1520 cc         1 A1I       0.784500
     54 N10         14.4990    45.8050     0.2720 nb         1 A1I      -0.220000
     55 N11         12.3820    48.1930    -3.3740 nd         1 A1I      -0.785100
     56 N12         12.9090    47.2920    -5.3930 nv         1 A1I      -1.031200
     57 N5          17.9000    45.5490     0.0530 nv         1 A1I      -1.022200
     58 N6          14.5460    43.8270    -1.1290 na         1 A1I      -0.311300
     59 N7          15.1750    44.7620    -3.0550 nd         1 A1I      -0.535100
     60 N8          15.7820    47.7570    -3.1520 nv         1 A1I      -1.043900
     61 N9          15.1490    47.7650    -0.9300 nb         1 A1I      -0.281000
     62 O10         18.4950    43.1550    -6.2770 o          1 A1I      -0.465000
     63 O11         18.6790    40.9330    -7.6080 os         1 A1I      -0.563400
     64 O12         18.8160    41.7540   -10.2340 os         1 A1I      -0.427000
     65 O13         16.7200    38.0440   -10.1390 oh         1 A1I      -0.700000
     66 O14         16.2160    40.8880   -10.1950 os         1 A1I      -0.434000
     67 O15         12.4760    45.2530    -8.0070 o          1 A1I      -0.550000
     68 O16         16.3630    44.9490   -10.3040 o          1 A1I      -0.555000
     69 O17         19.0650    40.1310    -2.5880 os         1 A1I      -0.436000
     70 O18         17.6460    41.1340     1.0650 o          1 A1I      -0.572000
     71 O19         14.6020    41.5450    -0.7050 os         1 A1I      -0.448000
     72 O20          9.2860    47.3700     1.2550 os         1 A1I      -0.417000
     73 O21          7.4110    46.2780    -0.4350 oh         1 A1I      -0.682000
     74 O22         11.8290    49.0730    -1.3610 o          1 A1I      -0.557000
     75 O6          13.7260    38.0550    -4.4780 o          1 A1I      -0.468000
     76 O7          15.8240    38.8670    -3.3690 os         1 A1I      -0.572400
     77 O8          17.6700    38.0600    -1.5380 os         1 A1I      -0.421000
     78 O9          18.3170    40.9320    -5.0810 os         1 A1I      -0.569400
     79 P            9.6480    41.6670    -1.0870 p5         1 A1I       1.129200
     80 P1          14.3920    39.2650    -3.9700 p5         1 A1I       1.132200
     81 P2          18.9790    41.7640    -6.2640 p5         1 A1I       1.118200
     82 S            9.8560    41.7830    -3.1510 sh         1 A1I      -0.478200
     83 S1          14.6350    40.8370    -5.3060 sh         1 A1I      -0.467200
     84 S2          21.0060    41.4500    -5.9640 sh         1 A1I      -0.479200
     85 H1          12.3990    43.5760     0.6610 h1         1 A1I       0.149700
     86 H2          14.1880    40.0740     1.3260 h1         1 A1I       0.079200
     87 H3          12.4570    39.7390     1.1170 h1         1 A1I       0.079200
     88 H4          14.4540    46.0650    -9.2210 hn         1 A1I       0.344500
     89 H5           9.7760    43.2660     1.2370 h1         1 A1I       0.066200
     90 H6           8.1260    43.6060     0.6930 h1         1 A1I       0.066200
     91 H7          12.3300    42.3130    -1.7440 h1         1 A1I       0.107700
     92 H8          11.6900    47.3250     0.3770 h2         1 A1I       0.123700
     93 H9          11.2940    44.8120    -2.0090 h4         1 A1I       0.209000
     94 H10         13.1560    44.4760    -4.9690 hc         1 A1I       0.049700
     95 H11         11.8680    43.7200    -4.0440 hc         1 A1I       0.049700
     96 H12         11.4780    44.6960    -5.4550 hc         1 A1I       0.049700
     97 H13         14.2260    38.8890    -1.2290 h1         1 A1I       0.069700
     98 H14         12.4880    39.0650    -1.4700 h1         1 A1I       0.069700
     99 H15         16.5680    40.7920    -3.0300 h1         1 A1I       0.109700
    100 H16         16.4960    39.5030    -0.6360 h1         1 A1I       0.140700
    101 H17         19.3310    37.6020    -2.7180 h1         1 A1I       0.073200
    102 H18         17.7610    37.1710    -3.4240 h1         1 A1I       0.073200
    103 H19         19.5070    39.2080    -5.0700 h1         1 A1I       0.062700
    104 H20         17.7970    38.9600    -5.4530 h1         1 A1I       0.062700
    105 H21         16.6740    41.4780    -7.7370 h1         1 A1I       0.089700
    106 H22         18.1220    43.3340    -9.1010 h1         1 A1I       0.149700
    107 H23         18.3570    40.0360   -11.3260 h1         1 A1I       0.081700
    108 H24         19.3600    39.7710    -9.8870 h1         1 A1I       0.081700
    109 H25         17.5740    38.4950    -8.2940 h1         1 A1I       0.028700
    110 H26         15.8770    38.9530    -8.4620 h1         1 A1I       0.028700
    111 H27         16.6170    42.6230   -11.2380 h2         1 A1I       0.125700
    112 H28         14.3900    41.3260    -8.9270 h4         1 A1I       0.213000
    113 H29         12.1070    42.6510    -6.6780 hc         1 A1I       0.051367
    114 H30         11.2320    42.6500    -8.2020 hc         1 A1I       0.051367
    115 H31         12.2920    41.3030    -7.7920 hc         1 A1I       0.051367
    116 H32         19.1460    39.8920    -0.5400 h2         1 A1I       0.124700
    117 H33         18.8160    42.3260    -2.9390 h4         1 A1I       0.215000
    118 H34         19.5900    45.6320    -2.3640 hc         1 A1I       0.049033
    119 H35         18.9890    44.5810    -3.6410 hc         1 A1I       0.049033
    120 H36         17.9020    45.7130    -2.8560 hc         1 A1I       0.049033
    121 H37         15.0210    43.0080     0.7060 h2         1 A1I       0.143700
    122 H38         14.8410    42.6830    -2.9200 h5         1 A1I       0.071800
    123 H39         14.6230    47.6960     1.0470 h5         1 A1I       0.052100
    124 H40          8.1690    45.8180     2.0870 h1         1 A1I       0.067700
    125 H41          9.8990    45.8000     2.4850 h1         1 A1I       0.067700
    126 H42          9.3670    48.2890    -0.5940 h1         1 A1I       0.142700
    127 H43          9.0250    45.8250    -1.6480 h1         1 A1I       0.080700
    128 H44         13.1260    48.2210    -5.7140 hn         1 A1I       0.505500
    129 H45         12.8620    46.5640    -6.0870 hn         1 A1I       0.505500
    130 H46         17.5830    45.7660     0.9830 hn         1 A1I       0.507500
    131 H47         18.0510    46.3170    -0.5780 hn         1 A1I       0.507500
    132 H48         15.7910    48.7630    -3.1390 hn         1 A1I       0.503000
    133 H49         15.7380    47.3160    -4.0560 hn         1 A1I       0.503000
    134 H50         16.4850    37.1580    -9.8500 ho         1 A1I       0.517000
    135 H51          6.9530    45.5220    -0.8170 ho         1 A1I       0.513000
    136 H52          9.9570    40.4570    -3.3270 hs         1 A1I       0.315800
    137 H53         15.0170    40.0550    -6.3260 hs         1 A1I       0.294800
    138 H54         21.3930    42.1310    -7.0520 hs         1 A1I       0.331800
    139 C           12.1420    44.6200    -4.5920 c3         1 A1I      -0.038900
    140 O2           8.6070    40.7740    -0.5520 o          1 A1I      -0.469000
@<TRIPOS>BOND
     1     1    31 1   
     2     1    32 1   
     3     1    36 1   
     4     2    10 1   
     5     2    13 1   
     6     2    43 1   
     7     2    85 1   
     8     3     5 1   
     9     3    13 1   
    10     3    86 1   
    11     3    87 1   
    12     4    35 1   
    13     4    36 1   
    14     4    88 1   
    15     5    10 1   
    16     5    20 1   
    17     5    71 1   
    18     6     9 1   
    19     6    79 1   
    20     7    16 2   
    21     7    53 1   
    22     7   139 1   
    23     8    20 1   
    24     8    80 1   
    25     9    12 1   
    26     9    89 1   
    27     9    90 1   
    28    10    15 1   
    29    10    91 1   
    30    11    37 1   
    31    11    38 1   
    32    11    42 1   
    33    12    19 1   
    34    12    49 1   
    35    12    51 1   
    36    14    18 1   
    37    14    19 1   
    38    14    50 1   
    39    14    92 1   
    40    15    79 1   
    41    16    18 1   
    42    16    93 1   
    43    17    41 2   
    44    17    42 1   
    45    18    52 1   
    46    20    97 1   
    47    20    98 1   
    48    21    22 1   
    49    21    24 1   
    50    21    76 1   
    51    21    99 1   
    52    22    37 1   
    53    22    77 1   
    54    22   100 1   
    55    23    24 1   
    56    23    77 1   
    57    23   101 1   
    58    23   102 1   
    59    24    25 1   
    60    24    69 1   
    61    25    78 1   
    62    25   103 1   
    63    25   104 1   
    64    26    27 1   
    65    26    29 1   
    66    26    63 1   
    67    26   105 1   
    68    27    31 1   
    69    27    64 1   
    70    27   106 1   
    71    28    29 1   
    72    28    64 1   
    73    28   107 1   
    74    28   108 1   
    75    29    30 1   
    76    29    66 1   
    77    30    65 1   
    78    30   109 1   
    79    30   110 1   
    80    31    66 1   
    81    31   111 1   
    82    32    33 2   
    83    32   112 1   
    84    33    34 1   
    85    33    35 1   
    86    34   113 1   
    87    34   114 1   
    88    34   115 1   
    89    35    67 2   
    90    36    68 2   
    91    37    69 1   
    92    37   116 1   
    93    38    39 2   
    94    38   117 1   
    95    39    40 1   
    96    39    41 1   
    97    40   118 1   
    98    40   119 1   
    99    40   120 1   
   100    41    57 1   
   101    42    70 2   
   102    43    58 1   
   103    43    71 1   
   104    43   121 1   
   105    44    58 1   
   106    44    59 2   
   107    44   122 1   
   108    45    46 ar  
   109    45    48 ar  
   110    45    59 1   
   111    46    60 1   
   112    46    61 ar  
   113    47    54 ar  
   114    47    61 ar  
   115    47   123 1   
   116    48    54 ar  
   117    48    58 1   
   118    49    72 1   
   119    49   124 1   
   120    49   125 1   
   121    50    51 1   
   122    50    72 1   
   123    50   126 1   
   124    51    73 1   
   125    51   127 1   
   126    52    55 1   
   127    52    74 2   
   128    53    55 2   
   129    53    56 1   
   130    56   128 1   
   131    56   129 1   
   132    57   130 1   
   133    57   131 1   
   134    60   132 1   
   135    60   133 1   
   136    62    81 2   
   137    63    81 1   
   138    65   134 1   
   139    73   135 1   
   140    75    80 2   
   141    76    80 1   
   142    78    81 1   
   143    79    82 1   
   144    79   140 2   
   145    80    83 1   
   146    81    84 1   
   147    82   136 1   
   148    83   137 1   
   149    84   138 1   
   150    94   139 1   
   151    95   139 1   
   152    96   139 1   
@<TRIPOS>SUBSTRUCTURE
     1 A1I         1 TEMP              0 ****  ****    0 ROOT
