@<TRIPOS>MOLECULE
A1I
   75    78     1     0     0
SMALL
abcg2


@<TRIPOS>ATOM
      1 C1          -2.7080    -0.6700    -3.0760 c3         1 A1I      -0.078100
      2 C2          -1.9350    -0.5820    -1.7720 c3         1 A1I      -0.153400
      3 C3          -2.2970     0.6390    -0.9500 c          1 A1I       0.613100
      4 O4          -3.1290     1.4440    -1.3310 o          1 A1I      -0.584100
      5 C7          -0.9620    -1.2340     1.4230 ca         1 A1I      -0.095000
      6 C8           0.0210    -2.1090     1.8690 ca         1 A1I      -0.183000
      7 C9           1.3600    -1.8790     1.5660 ca         1 A1I       0.113100
      8 C10          1.6620    -0.7530     0.7960 ca         1 A1I       0.141000
      9 C11          0.6990     0.1160     0.3450 ca         1 A1I      -0.115000
     10 C14          2.1740    -3.7410     2.8190 c5         1 A1I       0.163300
     11 C15          3.5430    -4.2300     3.2930 c5         1 A1I      -0.079400
     12 C16          3.8920    -5.3730     2.3480 c5         1 A1I      -0.099400
     13 C20          2.8380    -8.0830     3.6180 c          1 A1I       0.651100
     14 C24          2.2260   -10.4090     6.4630 c5         1 A1I      -0.084400
     15 C30         -1.9090     1.9550     1.0860 c3         1 A1I       0.171000
     16 C31         -2.3580     1.5410     2.4840 c3         1 A1I      -0.172400
     17 C32         -2.7740     2.7470     3.3050 c          1 A1I       0.607100
     18 C35         -0.7250     2.8970     1.0760 ca         1 A1I      -0.097300
     19 N5          -1.6430     0.7860     0.2410 n          1 A1I      -0.252400
     20 C6          -0.6370    -0.1220     0.6640 ca         1 A1I      -0.070000
     21 O13          2.3990    -2.6290     1.9510 os         1 A1I      -0.325100
     22 C17          2.5540    -6.0990     2.1880 c5         1 A1I       0.133700
     23 C18          1.5500    -4.9420     2.0690 c5         1 A1I      -0.131400
     24 N19          2.2180    -6.9100     3.3450 ns         1 A1I      -0.523900
     25 O21          3.6540    -8.6000     2.8630 o          1 A1I      -0.634100
     26 N22          2.4880    -8.6510     4.8120 ns         1 A1I      -0.529900
     27 C23          2.9340    -9.9780     5.1720 c5         1 A1I       0.141700
     28 C25          2.7870    -9.5670     7.6050 c5         1 A1I      -0.287400
     29 S26          4.5330    -9.3080     7.1780 s6         1 A1I       1.045000
     30 O27          4.8260    -7.8780     7.1070 o          1 A1I      -0.512000
     31 C29          4.4230   -10.0070     5.5130 c5         1 A1I      -0.286400
     32 O33         -3.3560     3.6970     2.8010 o          1 A1I      -0.594100
     33 N34         -2.4790     2.6780     4.6110 nt         1 A1I      -0.611000
     34 C36          0.2670     2.8730     2.0500 ca         1 A1I      -0.086000
     35 C37          1.3650     3.7190     1.9760 ca         1 A1I      -0.107000
     36 C38          1.4700     4.5980     0.9120 ca         1 A1I       0.126000
     37 C39          0.4960     4.6450    -0.0740 ca         1 A1I      -0.107000
     38 C40         -0.5930     3.7930     0.0190 ca         1 A1I      -0.086000
     39 CL41         2.8380     5.6590     0.8110 cl         1 A1I      -0.204000
     40 H1B         -2.4060    -1.5650    -3.6200 hc         1 A1I       0.042700
     41 H1A         -3.7830    -0.7310    -2.9080 hc         1 A1I       0.042700
     42 H1C         -2.5190     0.1890    -3.7190 hc         1 A1I       0.042700
     43 H2A         -2.1040    -1.4790    -1.1710 hc         1 A1I       0.061200
     44 H2B         -0.8600    -0.5700    -1.9710 hc         1 A1I       0.061200
     45 H7          -1.9980    -1.4310     1.6680 ha         1 A1I       0.123000
     46 H8          -0.2770    -2.9680     2.4530 ha         1 A1I       0.121000
     47 H11          0.9840     0.9710    -0.2550 ha         1 A1I       0.151000
     48 H14          1.5560    -3.4110     3.6590 h1         1 A1I       0.048700
     49 H15B         4.2790    -3.4260     3.3180 hc         1 A1I       0.066200
     50 H15A         3.4500    -4.6070     4.3130 hc         1 A1I       0.066200
     51 H16B         4.2070    -4.9850     1.3750 hc         1 A1I       0.071200
     52 H16A         4.6880    -6.0180     2.7170 hc         1 A1I       0.071200
     53 H24A         2.4310   -11.4650     6.6350 hc         1 A1I       0.068700
     54 H30         -2.7440     2.4740     0.6200 h1         1 A1I       0.117700
     55 H31A        -3.2340     0.8910     2.3890 hc         1 A1I       0.062700
     56 H31B        -1.6010     0.9520     3.0050 hc         1 A1I       0.062700
     57 H17          2.5330    -6.7300     1.2990 h1         1 A1I       0.083700
     58 H18B         1.4160    -4.6920     1.0150 hc         1 A1I       0.063700
     59 H18A         0.5650    -5.2110     2.4530 hc         1 A1I       0.063700
     60 H19          1.6150    -6.5040     4.0430 hn         1 A1I       0.305500
     61 H22          1.6510    -8.3190     5.2670 hn         1 A1I       0.306500
     62 H23          2.7330   -10.7000     4.3750 h1         1 A1I       0.082700
     63 H25B         2.3150    -8.5880     7.6770 h1         1 A1I       0.107200
     64 H25A         2.7410   -10.0590     8.5740 h1         1 A1I       0.107200
     65 H29B         5.0540    -9.4310     4.8410 h1         1 A1I       0.124700
     66 H29A         4.7830   -11.0350     5.5620 h1         1 A1I       0.124700
     67 H34A        -2.7690     3.4110     5.2380 hn         1 A1I       0.313500
     68 H34B        -2.0030     1.8870     5.0100 hn         1 A1I       0.313500
     69 H36          0.2110     2.1870     2.8850 ha         1 A1I       0.121500
     70 H37          2.1280     3.6860     2.7420 ha         1 A1I       0.130500
     71 H39          0.5790     5.3380    -0.9000 ha         1 A1I       0.130500
     72 H40         -1.3530     3.8330    -0.7520 ha         1 A1I       0.121500
     73 F12          2.9490    -0.5210     0.5010 f          1 A1I      -0.160000
     74 H24B         1.1440   -10.2960     6.3880 hc         1 A1I       0.068700
     75 O28          5.3890   -10.1460     8.0180 o          1 A1I      -0.512000
@<TRIPOS>BOND
     1     1     2 1   
     2     1    40 1   
     3     1    41 1   
     4     1    42 1   
     5     2     3 1   
     6     2    43 1   
     7     2    44 1   
     8     3     4 2   
     9     3    19 1   
    10     5     6 ar  
    11     5    20 ar  
    12     5    45 1   
    13     6     7 ar  
    14     6    46 1   
    15     7     8 ar  
    16     7    21 1   
    17     8     9 ar  
    18     8    73 1   
    19     9    20 ar  
    20     9    47 1   
    21    10    11 1   
    22    10    21 1   
    23    10    23 1   
    24    10    48 1   
    25    11    12 1   
    26    11    49 1   
    27    11    50 1   
    28    12    22 1   
    29    12    51 1   
    30    12    52 1   
    31    13    24 1   
    32    13    25 2   
    33    13    26 1   
    34    14    27 1   
    35    14    28 1   
    36    14    53 1   
    37    14    74 1   
    38    15    16 1   
    39    15    18 1   
    40    15    19 1   
    41    15    54 1   
    42    16    17 1   
    43    16    55 1   
    44    16    56 1   
    45    17    32 2   
    46    17    33 1   
    47    18    34 ar  
    48    18    38 ar  
    49    19    20 1   
    50    22    23 1   
    51    22    24 1   
    52    22    57 1   
    53    23    58 1   
    54    23    59 1   
    55    24    60 1   
    56    26    27 1   
    57    26    61 1   
    58    27    31 1   
    59    27    62 1   
    60    28    29 1   
    61    28    63 1   
    62    28    64 1   
    63    29    30 2   
    64    29    31 1   
    65    29    75 2   
    66    31    65 1   
    67    31    66 1   
    68    33    67 1   
    69    33    68 1   
    70    34    35 ar  
    71    34    69 1   
    72    35    36 ar  
    73    35    70 1   
    74    36    37 ar  
    75    36    39 1   
    76    37    38 ar  
    77    37    71 1   
    78    38    72 1   
@<TRIPOS>SUBSTRUCTURE
     1 A1I         1 TEMP              0 ****  ****    0 ROOT
