@<TRIPOS>MOLECULE
A1I
   25    25     1     0     0
SMALL
abcg2


@<TRIPOS>ATOM
      1 C1          22.3290    37.9160    42.8080 c          1 A1I       0.677300
      2 C2          22.8780    38.3410    44.0540 ce         1 A1I      -0.729200
      3 C3          22.4940    39.2970    45.0490 ce         1 A1I      -0.024000
      4 C4          23.2520    39.3480    46.1590 c2         1 A1I      -0.428200
      5 C8          20.7390    38.4870    40.9850 c3         1 A1I       0.082000
      6 C9          21.2010    39.4980    39.9210 c3         1 A1I      -0.008500
      7 C5          24.4620    38.4550    46.1000 c5         1 A1I       0.186100
      8 S6          24.0900    37.3030    44.7300 s4         1 A1I       0.204700
      9 N7          21.3440    38.6920    42.2780 ns         1 A1I      -0.483900
     10 N10         20.9300    40.8820    40.2760 n8         1 A1I      -0.997200
     11 C11         22.6990    39.2780    39.6050 c          1 A1I       0.729000
     12 O12         23.5100    40.1070    40.0650 o          1 A1I      -0.726500
     13 O14         22.7230    36.8760    42.2560 o          1 A1I      -0.668100
     14 H3          21.6450    39.9550    44.9010 ha         1 A1I       0.184000
     15 H4          23.1190    40.0410    46.9750 ha         1 A1I       0.190000
     16 H81         19.6520    38.5640    41.0930 h1         1 A1I       0.038200
     17 H8          20.9530    37.4720    40.6530 h1         1 A1I       0.038200
     18 H9          20.6340    39.2550    39.0140 h1         1 A1I       0.048700
     19 H1          24.6660    37.8590    46.9880 h1         1 A1I       0.073200
     20 H5          25.3780    38.9870    45.8240 h1         1 A1I       0.073200
     21 HN7         21.1480    39.5750    42.7200 hn         1 A1I       0.286500
     22 HN10        20.0390    40.9600    40.7520 hn         1 A1I       0.375000
     23 HN11        21.6440    41.1970    40.9200 hn         1 A1I       0.375000
     24 H6          23.3960    36.4070    45.4890 hs         1 A1I       0.232000
     25 O13         22.9640    38.2610    38.9340 o          1 A1I      -0.726500
@<TRIPOS>BOND
     1     1     2 1   
     2     1     9 1   
     3     1    13 2   
     4     2     3 1   
     5     2     8 2   
     6     3     4 2   
     7     3    14 1   
     8     4     7 1   
     9     4    15 1   
    10     5     6 1   
    11     5     9 1   
    12     5    16 1   
    13     5    17 1   
    14     6    10 1   
    15     6    11 1   
    16     6    18 1   
    17     7     8 1   
    18     7    19 1   
    19     7    20 1   
    20     8    24 1   
    21     9    21 1   
    22    10    22 1   
    23    10    23 1   
    24    11    12 1   
    25    11    25 1   
@<TRIPOS>SUBSTRUCTURE
     1 A1I         1 TEMP              0 ****  ****    0 ROOT
