@<TRIPOS>MOLECULE
A1I
   30    30     1     0     0
SMALL
abcg2


@<TRIPOS>ATOM
      1 C1          53.1100     5.6530   -27.3650 c3         1 A1I      -0.181433
      2 C2          52.5290     6.3370   -26.1530 c          1 A1I       0.613433
      3 O1          51.5470     5.8950   -25.5840 o          1 A1I      -0.575100
      4 N1          53.1780     7.4490   -25.6970 n          1 A1I      -0.454800
      5 C3          54.1930     8.1700   -26.4300 c6         1 A1I       0.255067
      6 N2          53.6390     9.4020   -26.9570 n          1 A1I      -0.454800
      7 C4          53.5320     9.6050   -28.3000 c          1 A1I       0.613433
      8 C5          52.9250    10.9080   -28.7600 c3         1 A1I      -0.181433
      9 O2          53.9340     8.7800   -29.1030 o          1 A1I      -0.575100
     10 C6          53.0630    10.2360   -25.9220 c6         1 A1I       0.255067
     11 N3          52.0820     9.4830   -25.1690 n          1 A1I      -0.454800
     12 C7          50.7490     9.7620   -25.0950 c          1 A1I       0.613433
     13 C8          50.2760    11.0490   -25.7240 c3         1 A1I      -0.181433
     14 O3          49.9750     9.0180   -24.5200 o          1 A1I      -0.575100
     15 C9          52.6170     8.2490   -24.6290 c6         1 A1I       0.255067
     16 H1          52.5540     4.7400   -27.5580 hc         1 A1I       0.064478
     17 H3          53.0480     6.2880   -28.2500 hc         1 A1I       0.064478
     18 H2          54.1600     5.3950   -27.2210 hc         1 A1I       0.064478
     19 H4          55.0010     8.4230   -25.7380 h2         1 A1I       0.075200
     20 H5          54.6090     7.5770   -27.2350 h2         1 A1I       0.075200
     21 H7          53.0590    10.9960   -29.8350 hc         1 A1I       0.064478
     22 H6          51.8540    10.9380   -28.5520 hc         1 A1I       0.064478
     23 H8          53.3800    11.7730   -28.2810 hc         1 A1I       0.064478
     24 H9          53.8640    10.5430   -25.2410 h2         1 A1I       0.075200
     25 H10         52.6290    11.1360   -26.3400 h2         1 A1I       0.075200
     26 H13         49.2230    11.1870   -25.4940 hc         1 A1I       0.064478
     27 H11         50.8260    11.9160   -25.3550 hc         1 A1I       0.064478
     28 H12         50.3840    11.0260   -26.8090 hc         1 A1I       0.064478
     29 H14         53.4170     8.4900   -23.9230 h2         1 A1I       0.075200
     30 H15         51.8420     7.7020   -24.1060 h2         1 A1I       0.075200
@<TRIPOS>BOND
     1     1     2 1   
     2     1    16 1   
     3     1    17 1   
     4     1    18 1   
     5     2     3 2   
     6     2     4 1   
     7     4     5 1   
     8     4    15 1   
     9     5     6 1   
    10     5    19 1   
    11     5    20 1   
    12     6     7 1   
    13     6    10 1   
    14     7     8 1   
    15     7     9 2   
    16     8    21 1   
    17     8    22 1   
    18     8    23 1   
    19    10    11 1   
    20    10    24 1   
    21    10    25 1   
    22    11    12 1   
    23    11    15 1   
    24    12    13 1   
    25    12    14 2   
    26    13    26 1   
    27    13    27 1   
    28    13    28 1   
    29    15    29 1   
    30    15    30 1   
@<TRIPOS>SUBSTRUCTURE
     1 A1I         1 TEMP              0 ****  ****    0 ROOT
