@<TRIPOS>MOLECULE
A1I
  128   130     1     0     0
SMALL
abcg2


@<TRIPOS>ATOM
      1 C4         149.0140   124.7390   117.3480 c3         1 A1I      -0.074400
      2 C5         148.5440   123.5690   118.2070 c3         1 A1I      -0.074400
      3 C6         149.1920   122.2490   117.8050 c3         1 A1I      -0.080400
      4 C7         148.6280   121.0390   118.5380 c3         1 A1I      -0.071400
      5 C8         149.1410   119.7050   118.0040 c3         1 A1I      -0.078400
      6 C10        151.0170   118.0520   117.7160 c3         1 A1I      -0.076400
      7 C13        154.0110   119.1710   119.1020 c3         1 A1I      -0.074400
      8 C15        155.4640   120.8140   117.7950 c3         1 A1I      -0.067200
      9 C17        157.5540   121.4420   116.4180 ce         1 A1I      -0.301200
     10 C21        157.4730   121.3370   112.6410 c3         1 A1I       0.092000
     11 C22        156.8740   122.6580   112.1350 c3         1 A1I      -0.096400
     12 C24        154.5120   121.8110   111.7940 c3         1 A1I      -0.083400
     13 C26        152.1350   120.8770   111.0930 c          1 A1I       0.603100
     14 C1         146.3430   127.5610   117.7500 c3         1 A1I      -0.090100
     15 C11        152.3110   117.4330   118.2330 c3         1 A1I      -0.072400
     16 C12        153.5980   118.2250   117.9760 c3         1 A1I      -0.075400
     17 C14        155.4050   119.7630   118.9070 c3         1 A1I      -0.071400
     18 C16        156.8620   121.2770   117.5520 c2         1 A1I      -0.120200
     19 C18        157.0390   121.1860   115.0550 c          1 A1I       0.614300
     20 C2         146.8920   126.1510   117.5840 c3         1 A1I      -0.077400
     21 C23        155.7270   122.4700   111.1450 c3         1 A1I      -0.076400
     22 C25        153.2560   121.9200   110.9270 c3         1 A1I      -0.001300
     23 C29        152.1870   120.6430   113.5600 c3         1 A1I       0.211300
     24 C3         148.4090   126.0890   117.7250 c3         1 A1I      -0.071400
     25 C30        152.7710   119.2740   113.8460 c3         1 A1I      -0.118100
     26 C31        151.1240   121.0110   114.5830 c3         1 A1I      -0.170400
     27 C32        150.3940   122.3120   114.3140 c          1 A1I       0.610100
     28 C35        152.4090   123.7360   114.9110 c3         1 A1I       0.045700
     29 C36        152.7660   123.2320   116.3380 c3         1 A1I      -0.099400
     30 C37        153.5350   124.2110   117.2270 c3         1 A1I      -0.082400
     31 C38        154.9450   124.5390   116.7430 c3         1 A1I      -0.103400
     32 C39        154.9930   124.7990   115.2420 c3         1 A1I       0.093000
     33 C41        152.6070   125.2510   114.8070 c          1 A1I       0.543000
     34 C45        152.6340   124.0940   109.9650 c          1 A1I       0.620100
     35 C47        151.7930   125.3470   110.1500 c5         1 A1I       0.014500
     36 C48        152.5030   126.4670   110.9340 c5         1 A1I       0.124600
     37 C50        150.4390   126.1560   111.6860 ce         1 A1I       0.699200
     38 C52        149.2520   126.4070   112.4820 ca         1 A1I      -0.282900
     39 C53        149.1860   127.4790   113.3780 ca         1 A1I       0.000000
     40 C54        148.0420   127.7200   114.1080 ca         1 A1I      -0.182000
     41 C55        146.9390   126.8820   113.9440 ca         1 A1I      -0.037000
     42 C56        146.9800   125.8170   113.0670 ca         1 A1I      -0.178000
     43 C57        148.1350   125.5600   112.3230 ca         1 A1I       0.230100
     44 C9         150.5930   119.3770   118.3430 c3         1 A1I      -0.073400
     45 N20        157.9070   121.3810   114.0220 n          1 A1I      -0.276300
     46 N34        151.0470   123.4800   114.4960 ns         1 A1I      -0.529900
     47 N40        153.9020   125.6430   114.7840 n          1 A1I      -0.270300
     48 N44        152.6240   123.2250   110.9940 ns         1 A1I      -0.496900
     49 N51        150.5750   125.1440   110.9110 n2         1 A1I      -0.738900
     50 O19        155.9070   120.7790   114.8190 o          1 A1I      -0.613100
     51 O27        151.6600   120.3560   110.1200 o          1 A1I      -0.409000
     52 O28        151.5550   120.6320   112.2690 os         1 A1I      -0.468100
     53 O33        149.2250   122.3030   113.9560 o          1 A1I      -0.566100
     54 O43        154.1110   126.9860   114.9700 oh         1 A1I      -0.434100
     55 O46        153.2760   123.9330   108.9420 o          1 A1I      -0.591100
     56 O49        151.4320   127.0430   111.7010 os         1 A1I      -0.428600
     57 O58        148.1250   124.5300   111.4820 oh         1 A1I      -0.533100
     58 O59        159.0410   122.1250   114.2410 oh         1 A1I      -0.444100
     59 H4B        148.7790   124.5290   116.2980 hc         1 A1I       0.039700
     60 H4A        150.1060   124.8090   117.4020 hc         1 A1I       0.039700
     61 H5A        148.7520   123.7790   119.2620 hc         1 A1I       0.037700
     62 H5B        147.4580   123.4620   118.1270 hc         1 A1I       0.037700
     63 H6A        149.0490   122.1030   116.7300 hc         1 A1I       0.035200
     64 H6B        150.2730   122.3120   117.9630 hc         1 A1I       0.035200
     65 H7A        148.8410   121.1180   119.6090 hc         1 A1I       0.039200
     66 H7B        147.5370   121.0570   118.4450 hc         1 A1I       0.039200
     67 H8B        148.5120   118.8990   118.3950 hc         1 A1I       0.040200
     68 H8A        149.0110   119.6820   116.9150 hc         1 A1I       0.040200
     69 H10A       150.2140   117.3240   117.8730 hc         1 A1I       0.037200
     70 H10B       151.0900   118.1830   116.6300 hc         1 A1I       0.037200
     71 H13B       153.2780   119.9750   119.2220 hc         1 A1I       0.041200
     72 H13A       154.0010   118.6110   120.0420 hc         1 A1I       0.041200
     73 H15B       155.0010   120.4540   116.8830 hc         1 A1I       0.065200
     74 H15A       154.8780   121.6810   118.1260 hc         1 A1I       0.065200
     75 H17        158.5720   121.7910   116.5110 ha         1 A1I       0.194000
     76 H21A       158.3330   121.0470   112.0350 h1         1 A1I       0.066700
     77 H21B       156.7590   120.5220   112.5590 h1         1 A1I       0.066700
     78 H22B       156.5010   123.2370   112.9850 hc         1 A1I       0.047200
     79 H22A       157.6560   123.2650   111.6770 hc         1 A1I       0.047200
     80 H24A       154.7180   120.7580   111.9990 hc         1 A1I       0.050700
     81 H24B       154.3530   122.2900   112.7610 hc         1 A1I       0.050700
     82 H1A        145.2560   127.5840   117.6520 hc         1 A1I       0.029367
     83 H1C        146.5930   127.9700   118.7310 hc         1 A1I       0.029367
     84 H1B        146.7570   128.2360   116.9990 hc         1 A1I       0.029367
     85 H11B       152.2140   117.2350   119.3070 hc         1 A1I       0.038700
     86 H11A       152.4100   116.4510   117.7630 hc         1 A1I       0.038700
     87 H12B       154.4180   117.5160   117.8260 hc         1 A1I       0.037700
     88 H12A       153.5070   118.7710   117.0320 hc         1 A1I       0.037700
     89 H14A       155.7470   120.2180   119.8410 hc         1 A1I       0.041200
     90 H14B       156.1080   118.9540   118.6860 hc         1 A1I       0.041200
     91 H16        157.4060   121.5210   118.4620 ha         1 A1I       0.168000
     92 H2B        146.4200   125.4920   118.3170 hc         1 A1I       0.038700
     93 H2A        146.6090   125.7600   116.6010 hc         1 A1I       0.038700
     94 H23A       155.4460   123.4520   110.7570 hc         1 A1I       0.054700
     95 H23B       156.0520   121.8810   110.2820 hc         1 A1I       0.054700
     96 H25        153.5680   121.7840   109.8920 h1         1 A1I       0.109700
     97 H29        152.9850   121.3780   113.5890 h1         1 A1I       0.043700
     98 H3B        148.8540   126.8600   117.0860 hc         1 A1I       0.038200
     99 H3A        148.6910   126.3470   118.7520 hc         1 A1I       0.038200
    100 H30B       153.2410   119.2750   114.8290 hc         1 A1I       0.052700
    101 H30C       151.9950   118.5070   113.8400 hc         1 A1I       0.052700
    102 H30A       153.5330   119.0050   113.1140 hc         1 A1I       0.052700
    103 H31A       150.3690   120.2230   114.6260 hc         1 A1I       0.080700
    104 H31B       151.6030   121.0340   115.5640 hc         1 A1I       0.080700
    105 H35        153.0890   123.2770   114.1920 h1         1 A1I       0.059700
    106 H36A       151.8330   122.9830   116.8430 hc         1 A1I       0.060700
    107 H36B       153.3370   122.3040   116.2530 hc         1 A1I       0.060700
    108 H37B       152.9540   125.1300   117.3470 hc         1 A1I       0.055700
    109 H37A       153.5960   123.7800   118.2280 hc         1 A1I       0.055700
    110 H38A       155.3250   125.4040   117.2900 hc         1 A1I       0.056200
    111 H38B       155.6250   123.7110   116.9570 hc         1 A1I       0.056200
    112 H39A       155.9250   125.2750   114.9430 h1         1 A1I       0.063200
    113 H39B       154.9540   123.8590   114.6900 h1         1 A1I       0.063200
    114 H47        151.5350   125.6830   109.1410 h1         1 A1I       0.106700
    115 H48A       153.2600   126.0870   111.6240 h1         1 A1I       0.070200
    116 H48B       152.9400   127.2360   110.3020 h1         1 A1I       0.070200
    117 H53        150.0450   128.1230   113.5020 ha         1 A1I       0.128000
    118 H54        148.0010   128.5490   114.8010 ha         1 A1I       0.118000
    119 H55        146.0350   127.0650   114.5100 ha         1 A1I       0.114000
    120 H56        146.1210   125.1710   112.9420 ha         1 A1I       0.135000
    121 H9A        151.2580   120.1780   118.0050 hc         1 A1I       0.034700
    122 H9B        150.7020   119.3260   119.4320 hc         1 A1I       0.034700
    123 H34        150.4840   124.3130   114.3650 hn         1 A1I       0.343500
    124 H44        152.0630   123.4540   111.8030 hn         1 A1I       0.332500
    125 H43        154.3570   127.3330   114.1020 ho         1 A1I       0.451000
    126 H58        149.0130   124.4710   111.0420 ho         1 A1I       0.524000
    127 H59        159.7800   121.5050   114.1860 ho         1 A1I       0.452000
    128 O42        151.6700   126.0220   114.7380 o          1 A1I      -0.508000
@<TRIPOS>BOND
     1     1     2 1   
     2     1    24 1   
     3     1    59 1   
     4     1    60 1   
     5     2     3 1   
     6     2    61 1   
     7     2    62 1   
     8     3     4 1   
     9     3    63 1   
    10     3    64 1   
    11     4     5 1   
    12     4    65 1   
    13     4    66 1   
    14     5    44 1   
    15     5    67 1   
    16     5    68 1   
    17     6    15 1   
    18     6    44 1   
    19     6    69 1   
    20     6    70 1   
    21     7    16 1   
    22     7    17 1   
    23     7    71 1   
    24     7    72 1   
    25     8    17 1   
    26     8    18 1   
    27     8    73 1   
    28     8    74 1   
    29     9    18 2   
    30     9    19 1   
    31     9    75 1   
    32    10    11 1   
    33    10    45 1   
    34    10    76 1   
    35    10    77 1   
    36    11    21 1   
    37    11    78 1   
    38    11    79 1   
    39    12    21 1   
    40    12    22 1   
    41    12    80 1   
    42    12    81 1   
    43    13    22 1   
    44    13    51 2   
    45    13    52 1   
    46    14    20 1   
    47    14    82 1   
    48    14    83 1   
    49    14    84 1   
    50    15    16 1   
    51    15    85 1   
    52    15    86 1   
    53    16    87 1   
    54    16    88 1   
    55    17    89 1   
    56    17    90 1   
    57    18    91 1   
    58    19    45 1   
    59    19    50 2   
    60    20    24 1   
    61    20    92 1   
    62    20    93 1   
    63    21    94 1   
    64    21    95 1   
    65    22    48 1   
    66    22    96 1   
    67    23    25 1   
    68    23    26 1   
    69    23    52 1   
    70    23    97 1   
    71    24    98 1   
    72    24    99 1   
    73    25   100 1   
    74    25   101 1   
    75    25   102 1   
    76    26    27 1   
    77    26   103 1   
    78    26   104 1   
    79    27    46 1   
    80    27    53 2   
    81    28    29 1   
    82    28    33 1   
    83    28    46 1   
    84    28   105 1   
    85    29    30 1   
    86    29   106 1   
    87    29   107 1   
    88    30    31 1   
    89    30   108 1   
    90    30   109 1   
    91    31    32 1   
    92    31   110 1   
    93    31   111 1   
    94    32    47 1   
    95    32   112 1   
    96    32   113 1   
    97    33    47 1   
    98    33   128 2   
    99    34    35 1   
   100    34    48 1   
   101    34    55 2   
   102    35    36 1   
   103    35    49 1   
   104    35   114 1   
   105    36    56 1   
   106    36   115 1   
   107    36   116 1   
   108    37    38 1   
   109    37    49 2   
   110    37    56 1   
   111    38    39 ar  
   112    38    43 ar  
   113    39    40 ar  
   114    39   117 1   
   115    40    41 ar  
   116    40   118 1   
   117    41    42 ar  
   118    41   119 1   
   119    42    43 ar  
   120    42   120 1   
   121    43    57 1   
   122    44   121 1   
   123    44   122 1   
   124    45    58 1   
   125    46   123 1   
   126    47    54 1   
   127    48   124 1   
   128    54   125 1   
   129    57   126 1   
   130    58   127 1   
@<TRIPOS>SUBSTRUCTURE
     1 A1I         1 TEMP              0 ****  ****    0 ROOT
