@<TRIPOS>MOLECULE
A1I
   73    77     1     0     0
SMALL
abcg2


@<TRIPOS>ATOM
      1 C8         164.8040   104.4830   154.8220 ca         1 A1I      -0.165900
      2 O1         169.1100   106.1640   156.2290 os         1 A1I      -0.481100
      3 C11        167.4580   102.2820   153.5160 cc         1 A1I      -0.115200
      4 C10        166.7710   103.4760   153.5650 cd         1 A1I      -0.205900
      5 C1         156.0510   106.2120   154.6540 ca         1 A1I       0.166000
      6 C2         157.2450   105.5730   154.3690 ca         1 A1I      -0.055000
      7 C3         158.4540   106.2160   154.6310 ca         1 A1I      -0.120600
      8 C4         159.7100   105.4690   154.2780 c          1 A1I       0.616700
      9 C5         162.1260   105.3320   154.8870 ca         1 A1I      -0.008000
     10 C6         162.5300   104.3520   153.9770 ca         1 A1I      -0.159000
     11 C7         163.8570   103.9460   153.9510 ca         1 A1I      -0.047000
     12 C12        167.2320   103.3260   151.2830 cc         1 A1I      -0.199300
     13 C13        167.3000   103.6090   149.8160 c3         1 A1I      -0.021800
     14 C14        166.6550   104.0830   152.2660 cd         1 A1I      -0.063300
     15 C15        166.0250   105.4190   152.0010 c3         1 A1I      -0.031800
     16 C16        167.8960   100.1670   154.8360 cc         1 A1I       0.417800
     17 C17        167.5380    99.1430   153.8270 c3         1 A1I      -0.128400
     18 C18        168.2430   102.0930   155.8260 cc         1 A1I       0.395800
     19 C19        168.2390   103.5760   155.9640 c3         1 A1I       0.103200
     20 C20        168.9000   104.0620   157.2470 c3         1 A1I      -0.110400
     21 C21        168.8070   105.5680   157.3810 c          1 A1I       0.612100
     22 C22        169.0180   107.6270   156.0160 c3         1 A1I       0.202000
     23 C23        170.0150   108.3460   156.9170 c3         1 A1I      -0.106100
     24 C24        169.4050   107.7730   154.5510 c3         1 A1I      -0.106100
     25 C25        167.5810   108.0840   156.2400 c3         1 A1I      -0.106100
     26 C26        164.3880   105.4620   155.7310 ca         1 A1I      -0.047000
     27 C27        163.0740   105.8840   155.7620 ca         1 A1I      -0.159000
     28 C28        158.4450   107.5050   155.1640 ca         1 A1I      -0.094000
     29 C29        157.2420   108.1390   155.4430 ca         1 A1I      -0.052000
     30 C30        156.0360   107.5020   155.1840 ca         1 A1I      -0.075500
     31 C9         166.2070   104.0050   154.8270 cf         1 A1I       0.557500
     32 N1         160.8150   105.8180   154.9920 ns         1 A1I      -0.140000
     33 N2         167.8300   101.5290   154.6350 na         1 A1I      -0.269800
     34 N3         168.3130    99.9370   156.0550 nd         1 A1I      -0.353000
     35 N4         168.5270   101.1570   156.6840 nd         1 A1I      -0.336000
     36 N5         166.8430   104.0260   155.9400 n2         1 A1I      -0.577900
     37 O2         168.5080   106.1330   158.4100 o          1 A1I      -0.490000
     38 O3         159.6970   104.6040   153.4100 o          1 A1I      -0.571100
     39 S1         167.9430   101.8760   151.9140 ss         1 A1I       0.233000
     40 S2         154.4150   108.2650   155.5130 sx         1 A1I       0.636300
     41 H1         157.2440   104.5780   153.9500 ha         1 A1I       0.155000
     42 H2         161.8150   103.9130   153.3030 ha         1 A1I       0.133000
     43 H3         164.1520   103.1830   153.2420 ha         1 A1I       0.129000
     44 H4         167.9360   102.8910   149.2990 hc         1 A1I       0.052033
     45 H5         166.3070   103.5690   149.3610 hc         1 A1I       0.052033
     46 H6         167.7040   104.6080   149.6360 hc         1 A1I       0.052033
     47 H7         164.9660   105.3250   151.7530 hc         1 A1I       0.050367
     48 H8         166.1000   106.0680   152.8740 hc         1 A1I       0.050367
     49 H9         166.5180   105.9150   151.1650 hc         1 A1I       0.050367
     50 H10        167.5140    98.1680   154.3110 hc         1 A1I       0.065367
     51 H11        166.5590    99.3510   153.3900 hc         1 A1I       0.065367
     52 H12        168.2680    99.1100   153.0160 hc         1 A1I       0.065367
     53 H13        168.7780   103.9850   155.1030 h1         1 A1I       0.080700
     54 H14        168.4290   103.6170   158.1210 hc         1 A1I       0.093200
     55 H15        169.9570   103.7820   157.2470 hc         1 A1I       0.093200
     56 H16        169.7420   108.2560   157.9650 hc         1 A1I       0.049367
     57 H17        171.0170   107.9380   156.7720 hc         1 A1I       0.049367
     58 H18        170.0350   109.4030   156.6490 hc         1 A1I       0.049367
     59 H19        169.3770   108.8260   154.2680 hc         1 A1I       0.049367
     60 H20        170.4140   107.3940   154.3810 hc         1 A1I       0.049367
     61 H21        168.7100   107.2240   153.9150 hc         1 A1I       0.049367
     62 H22        167.2860   107.9830   157.2820 hc         1 A1I       0.049367
     63 H23        167.4960   109.1330   155.9520 hc         1 A1I       0.049367
     64 H24        166.8990   107.5010   155.6190 hc         1 A1I       0.049367
     65 H25        165.1090   105.8950   156.4100 ha         1 A1I       0.129000
     66 H26        162.7690   106.6520   156.4620 ha         1 A1I       0.133000
     67 H27        159.3660   108.0410   155.3490 ha         1 A1I       0.118000
     68 H28        157.2570   109.1340   155.8650 ha         1 A1I       0.123000
     69 H29        160.6810   106.4950   155.7280 hn         1 A1I       0.155000
     70 H31        155.3610   110.2020   155.8410 ho         1 A1I       0.484000
     71 CL1        154.5530   105.3710   154.3390 cl         1 A1I      -0.185000
     72 O4         153.9450   108.7540   154.2000 o          1 A1I      -0.519000
     73 O5         154.8900   109.5480   156.3930 oh         1 A1I      -0.613800
@<TRIPOS>BOND
     1     1    11 ar  
     2     1    26 ar  
     3     1    31 1   
     4     2    21 1   
     5     2    22 1   
     6     3     4 2   
     7     3    33 1   
     8     3    39 1   
     9     4    14 1   
    10     4    31 1   
    11     5     6 ar  
    12     5    30 ar  
    13     5    71 1   
    14     6     7 ar  
    15     6    41 1   
    16     7     8 1   
    17     7    28 ar  
    18     8    32 1   
    19     8    38 2   
    20     9    10 ar  
    21     9    27 ar  
    22     9    32 1   
    23    10    11 ar  
    24    10    42 1   
    25    11    43 1   
    26    12    13 1   
    27    12    14 2   
    28    12    39 1   
    29    13    44 1   
    30    13    45 1   
    31    13    46 1   
    32    14    15 1   
    33    15    47 1   
    34    15    48 1   
    35    15    49 1   
    36    16    17 1   
    37    16    33 1   
    38    16    34 2   
    39    17    50 1   
    40    17    51 1   
    41    17    52 1   
    42    18    19 1   
    43    18    33 1   
    44    18    35 2   
    45    19    20 1   
    46    19    36 1   
    47    19    53 1   
    48    20    21 1   
    49    20    54 1   
    50    20    55 1   
    51    21    37 2   
    52    22    23 1   
    53    22    24 1   
    54    22    25 1   
    55    23    56 1   
    56    23    57 1   
    57    23    58 1   
    58    24    59 1   
    59    24    60 1   
    60    24    61 1   
    61    25    62 1   
    62    25    63 1   
    63    25    64 1   
    64    26    27 ar  
    65    26    65 1   
    66    27    66 1   
    67    28    29 ar  
    68    28    67 1   
    69    29    30 ar  
    70    29    68 1   
    71    30    40 1   
    72    31    36 2   
    73    32    69 1   
    74    34    35 1   
    75    40    72 2   
    76    40    73 1   
    77    70    73 1   
@<TRIPOS>SUBSTRUCTURE
     1 A1I         1 TEMP              0 ****  ****    0 ROOT
