@<TRIPOS>MOLECULE
A1I
   30    32     1     0     0
SMALL
abcg2


@<TRIPOS>ATOM
      1 NAP         -8.9880    31.2340    12.3250 nc         1 A1I      -0.583100
      2 CAO         -8.1520    31.6360    13.3380 ca         1 A1I       0.128400
      3 CAN         -6.9730    32.3600    13.1830 ca         1 A1I      -0.061000
      4 CAM         -6.2330    32.6720    14.3090 ca         1 A1I      -0.100000
      5 CAL         -6.6400    32.2780    15.5850 ca         1 A1I      -0.096000
      6 CAK         -7.8110    31.5590    15.7380 ca         1 A1I       0.154000
      7 CLAJ        -8.3530    31.0490    17.2950 cl         1 A1I      -0.180000
      8 CAS         -8.5650    31.2470    14.6200 ca         1 A1I      -0.224000
      9 SAR        -10.0590    30.3790    14.5350 ss         1 A1I       0.146800
     10 CAQ         -9.9940    30.5870    12.7940 cd         1 A1I       0.584100
     11 NAT        -11.0020    30.1460    11.9670 nu         1 A1I      -0.810300
     12 SAB        -11.9700    28.8210    12.2700 sy         1 A1I       1.182600
     13 OAA        -12.2560    28.8720    13.6880 o          1 A1I      -0.526500
     14 OAU        -13.0390    28.9170    11.2880 o          1 A1I      -0.526500
     15 CAC        -11.0130    27.3950    11.9060 ca         1 A1I      -0.426500
     16 CAH        -10.2040    26.8780    12.9230 ca         1 A1I       0.019000
     17 CAG         -9.3830    25.8000    12.6750 ca         1 A1I      -0.166000
     18 CAF         -9.3740    25.2320    11.4020 ca         1 A1I      -0.009000
     19 CAE        -10.1810    25.7250    10.3980 ca         1 A1I      -0.174000
     20 CAD        -11.0230    26.8170    10.6240 ca         1 A1I       0.259100
     21 OAI        -11.7700    27.2220     9.5980 oh         1 A1I      -0.531100
     22 H1          -6.6490    32.6660    12.1970 ha         1 A1I       0.136000
     23 H2          -5.3150    33.2350    14.2070 ha         1 A1I       0.123000
     24 H3          -6.0450    32.5340    16.4510 ha         1 A1I       0.132000
     25 H4         -10.8570    30.3570    10.9830 hn         1 A1I       0.519000
     26 H5         -10.2250    27.3180    13.9110 ha         1 A1I       0.137000
     27 H6          -8.7600    25.4010    13.4620 ha         1 A1I       0.127000
     28 H7          -8.7340    24.3850    11.1950 ha         1 A1I       0.121000
     29 H8         -10.1800    25.2680     9.4160 ha         1 A1I       0.136000
     30 H9         -12.4160    27.8950     9.8720 ho         1 A1I       0.510000
@<TRIPOS>BOND
     1     1     2 1   
     2     1    10 2   
     3     2     3 ar  
     4     2     8 ar  
     5     3     4 ar  
     6     3    22 1   
     7     4     5 ar  
     8     4    23 1   
     9     5     6 ar  
    10     5    24 1   
    11     6     7 1   
    12     6     8 ar  
    13     8     9 1   
    14     9    10 1   
    15    10    11 1   
    16    11    12 1   
    17    11    25 1   
    18    12    13 2   
    19    12    14 2   
    20    12    15 1   
    21    15    16 ar  
    22    15    20 ar  
    23    16    17 ar  
    24    16    26 1   
    25    17    18 ar  
    26    17    27 1   
    27    18    19 ar  
    28    18    28 1   
    29    19    20 ar  
    30    19    29 1   
    31    20    21 1   
    32    21    30 1   
@<TRIPOS>SUBSTRUCTURE
     1 A1I         1 TEMP              0 ****  ****    0 ROOT
