@<TRIPOS>MOLECULE
A1I
   35    34     1     0     0
SMALL
abcg2


@<TRIPOS>ATOM
      1 OAA          2.7480    59.5660    48.7670 o          1 A1I      -0.741000
      2 CAB          1.9170    58.7660    48.2860 c          1 A1I       0.724000
      3 NAC          0.7210    59.3190    47.7770 ns         1 A1I      -0.554900
      4 CAD          0.2730    60.6330    48.1510 c3         1 A1I       0.084000
      5 CAE         -0.2940    60.6830    49.5700 c3         1 A1I       0.110600
      6 OAF         -0.6550    61.9740    50.0120 os         1 A1I      -0.463000
      7 CAG         -1.7730    62.5520    49.3780 c3         1 A1I       0.130600
      8 CAH         -1.3290    63.6540    48.4160 c3         1 A1I       0.127600
      9 OAI         -2.4050    64.3840    47.8820 os         1 A1I      -0.470000
     10 CAJ         -3.1840    63.6810    46.9430 c3         1 A1I       0.147600
     11 CAK         -3.9790    64.7010    46.1490 c3         1 A1I       0.157600
     12 OAL         -4.8440    63.9980    45.2910 os         1 A1I      -0.469000
     13 CAM         -5.1750    64.6300    44.0740 c3         1 A1I       0.170600
     14 CAN         -6.3370    65.6030    44.1550 c3         1 A1I       0.116800
     15 NAO         -6.0140    66.8170    44.8930 n8         1 A1I      -0.999200
     16 H2          -0.0140    58.6470    47.6180 hn         1 A1I       0.247500
     17 H3           1.1020    61.3370    48.0670 h1         1 A1I       0.027700
     18 H4          -0.4890    60.9540    47.4340 h1         1 A1I       0.027700
     19 H5          -1.1500    59.9960    49.6400 h1         1 A1I       0.048700
     20 H6           0.4690    60.3270    50.2650 h1         1 A1I       0.048700
     21 H7          -2.4180    62.9920    50.1450 h1         1 A1I       0.032700
     22 H8          -2.3680    61.7910    48.8580 h1         1 A1I       0.032700
     23 H9          -0.7110    63.2310    47.6130 h1         1 A1I       0.058200
     24 H10         -0.7070    64.3690    48.9600 h1         1 A1I       0.058200
     25 H11         -3.8710    62.9770    47.4310 h1         1 A1I       0.035700
     26 H12         -2.5500    63.0960    46.2630 h1         1 A1I       0.035700
     27 H13         -3.2920    65.3430    45.5840 h1         1 A1I       0.036200
     28 H14         -4.5310    65.3490    46.8430 h1         1 A1I       0.036200
     29 H15         -4.3000    65.1480    43.6580 h1         1 A1I       0.047700
     30 H16         -5.4450    63.8310    43.3790 h1         1 A1I       0.047700
     31 H17         -6.5730    65.8860    43.1260 h1         1 A1I       0.029700
     32 H18         -7.2200    65.0740    44.5380 h1         1 A1I       0.029700
     33 H19         -6.7030    67.5270    44.6840 hn         1 A1I       0.393000
     34 H20         -6.0980    66.6510    45.8880 hn         1 A1I       0.393000
     35 OXT          2.0340    57.5290    48.1660 o          1 A1I      -0.741000
@<TRIPOS>BOND
     1     1     2 1   
     2     2     3 1   
     3     2    35 1   
     4     3     4 1   
     5     3    16 1   
     6     4     5 1   
     7     4    17 1   
     8     4    18 1   
     9     5     6 1   
    10     5    19 1   
    11     5    20 1   
    12     6     7 1   
    13     7     8 1   
    14     7    21 1   
    15     7    22 1   
    16     8     9 1   
    17     8    23 1   
    18     8    24 1   
    19     9    10 1   
    20    10    11 1   
    21    10    25 1   
    22    10    26 1   
    23    11    12 1   
    24    11    27 1   
    25    11    28 1   
    26    12    13 1   
    27    13    14 1   
    28    13    29 1   
    29    13    30 1   
    30    14    15 1   
    31    14    31 1   
    32    14    32 1   
    33    15    33 1   
    34    15    34 1   
@<TRIPOS>SUBSTRUCTURE
     1 A1I         1 TEMP              0 ****  ****    0 ROOT
