@<TRIPOS>MOLECULE
A1I
   29    30     1     0     0
SMALL
abcg2


@<TRIPOS>ATOM
      1 N          -22.7020   -16.5860    63.7260 n8         1 A1I      -1.003200
      2 CB         -23.2890   -15.2680    63.5390 c3         1 A1I       0.195500
      3 CG         -24.2170   -14.8240    64.6910 c3         1 A1I      -0.057200
      4 CD         -23.4830   -14.6330    65.9740 cc         1 A1I      -0.101400
      5 CE2        -22.6590   -13.5110    66.3200 ca         1 A1I      -0.096800
      6 CZ3        -22.3440   -12.3120    65.6700 ca         1 A1I      -0.043000
      7 CH3        -21.5030   -11.4120    66.2960 ca         1 A1I      -0.161000
      8 CT2        -20.9670   -11.6870    67.5650 ca         1 A1I      -0.100000
      9 CH2        -21.2600   -12.8620    68.2310 ca         1 A1I      -0.143000
     10 CZ2        -22.1090   -13.7680    67.5960 ca         1 A1I      -0.050200
     11 NZ1        -22.5720   -14.9860    67.9970 na         1 A1I      -0.235700
     12 CE1        -23.3910   -15.5000    67.0270 cd         1 A1I      -0.182100
     13 CA         -23.9930   -15.1650    62.1880 c3         1 A1I      -0.207400
     14 C          -25.2750   -15.9980    61.9810 c          1 A1I       0.717000
     15 O          -25.4100   -17.0470    62.6510 o          1 A1I      -0.745000
     16 H1         -22.3050   -16.6480    64.6570 hn         1 A1I       0.396500
     17 H2         -23.4600   -17.2570    63.6870 hn         1 A1I       0.396500
     18 H4         -22.4590   -14.5510    63.5110 h1         1 A1I       0.013700
     19 H5         -24.7100   -13.8870    64.4090 hc         1 A1I       0.063700
     20 H6         -25.0070   -15.5680    64.8130 hc         1 A1I       0.063700
     21 H7         -22.7530   -12.0930    64.6910 ha         1 A1I       0.123000
     22 H8         -21.2520   -10.4810    65.8060 ha         1 A1I       0.101000
     23 H9         -20.3110   -10.9640    68.0320 ha         1 A1I       0.095000
     24 H10        -20.8450   -13.0710    69.2090 ha         1 A1I       0.099000
     25 H11        -22.3600   -15.4350    68.8720 hn         1 A1I       0.337000
     26 H12        -23.8630   -16.4610    67.1630 h4         1 A1I       0.213000
     27 H13        -23.2800   -15.4600    61.4090 hc         1 A1I       0.028700
     28 H14        -24.2230   -14.1140    61.9940 hc         1 A1I       0.028700
     29 OXT        -26.0710   -15.5710    61.1230 o          1 A1I      -0.745000
@<TRIPOS>BOND
     1     1     2 1   
     2     1    16 1   
     3     1    17 1   
     4     2     3 1   
     5     2    13 1   
     6     2    18 1   
     7     3     4 1   
     8     3    19 1   
     9     3    20 1   
    10     4     5 1   
    11     4    12 2   
    12     5     6 ar  
    13     5    10 ar  
    14     6     7 ar  
    15     6    21 1   
    16     7     8 ar  
    17     7    22 1   
    18     8     9 ar  
    19     8    23 1   
    20     9    10 ar  
    21     9    24 1   
    22    10    11 1   
    23    11    12 1   
    24    11    25 1   
    25    12    26 1   
    26    13    14 1   
    27    13    27 1   
    28    13    28 1   
    29    14    15 1   
    30    14    29 1   
@<TRIPOS>SUBSTRUCTURE
     1 A1I         1 TEMP              0 ****  ****    0 ROOT
