@<TRIPOS>MOLECULE
A1I
   43    45     1     0     0
SMALL
abcg2


@<TRIPOS>ATOM
      1 N1          28.3730    49.4940    16.6320 n          1 A1I      -0.190400
      2 C4          22.1770    51.8570    15.5610 c6         1 A1I       0.175000
      3 C5          23.5650    52.2980    15.1690 c6         1 A1I      -0.123400
      4 C6          24.2670    52.9750    16.3440 c6         1 A1I      -0.072400
      5 C7          26.4500    50.8950    17.2120 c          1 A1I       0.593100
      6 C8          27.0860    49.5100    17.2810 c3         1 A1I      -0.013000
      7 C10         30.7910    49.3400    16.5760 c6         1 A1I       0.074600
      8 C13         28.6750    50.2080    12.5060 ca         1 A1I      -0.092000
      9 C15         27.3450    49.5510    14.4170 ca         1 A1I      -0.094000
     10 BR          25.9510    49.6260    11.9530 br         1 A1I      -0.104100
     11 C14         27.4700    49.8120    13.0590 ca         1 A1I      -0.013900
     12 C12         29.7820    50.3280    13.3340 ca         1 A1I      -0.112000
     13 C16         28.4510    49.6900    15.2460 ca         1 A1I      -0.051000
     14 C11         29.6740    50.0760    14.6890 ca         1 A1I       0.093100
     15 O4          30.7530    50.2360    15.4860 os         1 A1I      -0.320100
     16 C9          29.5070    49.3520    17.3760 c          1 A1I       0.550000
     17 O3          29.5060    49.1940    18.5780 o          1 A1I      -0.517000
     18 O2          27.1360    51.8930    17.0720 o          1 A1I      -0.578100
     19 N           25.1170    50.8870    17.3340 ns         1 A1I      -0.465900
     20 C1          24.3280    52.0850    17.5910 c6         1 A1I      -0.019600
     21 C           24.8770    52.8460    18.8480 c          1 A1I       0.730000
     22 O1          24.6940    54.0760    18.8700 o          1 A1I      -0.707500
     23 O           25.3820    52.1400    19.7380 o          1 A1I      -0.707500
     24 C3          22.1680    50.9650    16.7790 c6         1 A1I      -0.123400
     25 C2          22.9040    51.6260    17.9440 c6         1 A1I      -0.072400
     26 H1          24.1280    51.4200    14.8420 hc         1 A1I       0.047700
     27 H2          23.5100    52.9790    14.3160 hc         1 A1I       0.047700
     28 H3          25.2680    53.2740    16.0400 hc         1 A1I       0.068200
     29 H4          23.7410    53.8910    16.6090 hc         1 A1I       0.068200
     30 H5          26.4340    48.7370    16.8700 h1         1 A1I       0.074200
     31 H6          27.2330    49.2580    18.3310 h1         1 A1I       0.074200
     32 H7          30.9850    48.3150    16.2350 h1         1 A1I       0.075700
     33 H8          31.6120    49.6460    17.2200 h1         1 A1I       0.075700
     34 H9          28.7710    50.4130    11.4490 ha         1 A1I       0.125000
     35 H10         26.3870    49.2500    14.8190 ha         1 A1I       0.139000
     36 H11         30.7360    50.6340    12.9250 ha         1 A1I       0.126000
     37 H12         24.6870    49.9960    17.5260 hn         1 A1I       0.284500
     38 H14         21.1400    50.7330    17.0660 hc         1 A1I       0.047700
     39 H15         22.6400    50.0180    16.5070 hc         1 A1I       0.047700
     40 H16         22.3410    52.4980    18.2810 hc         1 A1I       0.068200
     41 H17         22.9370    50.9360    18.7910 hc         1 A1I       0.068200
     42 F           21.4000    52.9680    15.8060 f          1 A1I      -0.139500
     43 F1          21.5580    51.2240    14.5110 f          1 A1I      -0.139500
@<TRIPOS>BOND
     1     1     6 1   
     2     1    13 1   
     3     1    16 1   
     4     2     3 1   
     5     2    24 1   
     6     2    42 1   
     7     2    43 1   
     8     3     4 1   
     9     3    26 1   
    10     3    27 1   
    11     4    20 1   
    12     4    28 1   
    13     4    29 1   
    14     5     6 1   
    15     5    18 2   
    16     5    19 1   
    17     6    30 1   
    18     6    31 1   
    19     7    15 1   
    20     7    16 1   
    21     7    32 1   
    22     7    33 1   
    23     8    11 ar  
    24     8    12 ar  
    25     8    34 1   
    26     9    11 ar  
    27     9    13 ar  
    28     9    35 1   
    29    10    11 1   
    30    12    14 ar  
    31    12    36 1   
    32    13    14 ar  
    33    14    15 1   
    34    16    17 2   
    35    19    20 1   
    36    19    37 1   
    37    20    21 1   
    38    20    25 1   
    39    21    22 1   
    40    21    23 1   
    41    24    25 1   
    42    24    38 1   
    43    24    39 1   
    44    25    40 1   
    45    25    41 1   
@<TRIPOS>SUBSTRUCTURE
     1 A1I         1 TEMP              0 ****  ****    0 ROOT
