@<TRIPOS>MOLECULE
A1I
   88    92     1     0     0
SMALL
abcg2


@<TRIPOS>ATOM
      1 C4           5.9940    17.8510   -19.8710 ca         1 A1I      -0.013300
      2 C14         10.6950    18.6360   -18.1160 cc         1 A1I       0.214300
      3 C5           6.5450    19.0120   -19.3470 ca         1 A1I      -0.225000
      4 C6           6.8040    19.1110   -17.9800 ca         1 A1I       0.157100
      5 C11          9.9000    22.1100   -17.7500 c3         1 A1I       0.102300
      6 C7           6.4420    18.0680   -17.1260 ca         1 A1I       0.040100
      7 C8           7.7540    17.6940   -15.2110 c3         1 A1I       0.142900
      8 C9           7.4560    21.4150   -18.0570 c3         1 A1I       0.167600
      9 C10          8.4440    22.3030   -17.3250 c3         1 A1I      -0.098400
     10 C12         10.8510    22.9770   -16.9430 c3         1 A1I      -0.099100
     11 C13         10.3230    19.8190   -18.7030 cd         1 A1I      -0.221000
     12 N1          10.2960    20.7050   -17.6940 na         1 A1I       0.134800
     13 N2          10.8710    18.8820   -16.7990 nc         1 A1I      -0.368000
     14 C3           5.7010    16.7780   -19.0340 ca         1 A1I      -0.205000
     15 N3          10.6200    20.1270   -16.5560 nd         1 A1I      -0.195800
     16 C1           5.0870    14.7080   -17.2460 c3         1 A1I       0.143900
     17 C2           5.9110    16.8900   -17.6640 ca         1 A1I       0.151100
     18 O2           6.5620    18.2140   -15.7800 os         1 A1I      -0.334100
     19 O3           7.3970    20.1650   -17.3890 os         1 A1I      -0.330100
     20 C15         10.8630    17.3020   -18.7580 c3         1 A1I      -0.086700
     21 C16          9.8060    16.2670   -18.3310 c3         1 A1I      -0.063700
     22 C17         10.1540    15.6270   -16.9920 c3         1 A1I      -0.093100
     23 C18          9.6700    15.1700   -19.3710 c3         1 A1I       0.164600
     24 O4           9.1080    15.7430   -20.5580 os         1 A1I      -0.445100
     25 C19          9.2770    15.1390   -21.7180 c          1 A1I       0.580100
     26 O5           9.8880    14.1110   -21.8690 o          1 A1I      -0.493000
     27 C20          8.6090    15.8690   -22.8790 c6         1 A1I       0.046700
     28 C21          9.6340    16.2660   -23.9430 c6         1 A1I      -0.076400
     29 C22         10.4230    17.5040   -23.5570 c6         1 A1I      -0.077400
     30 C23          9.4450    18.6360   -23.2900 c6         1 A1I      -0.089400
     31 C24          8.4570    18.2630   -22.1980 c6         1 A1I       0.103000
     32 N4           7.7870    16.9890   -22.4540 n          1 A1I      -0.385800
     33 C25          6.5670    16.6630   -21.9430 c          1 A1I       0.611100
     34 O6           6.1810    15.5020   -21.9350 o          1 A1I      -0.601100
     35 C26          5.6870    17.7600   -21.3540 c3         1 A1I      -0.084400
     36 C27          4.1970    17.5010   -21.6420 c6         1 A1I      -0.045700
     37 C28          3.9170    17.4960   -23.1460 c6         1 A1I      -0.073900
     38 C29          2.4380    17.2700   -23.4470 c6         1 A1I      -0.072900
     39 C30          1.5650    18.3090   -22.7530 c6         1 A1I      -0.075400
     40 C31          1.8430    18.3360   -21.2550 c6         1 A1I      -0.072900
     41 C32          3.3230    18.5560   -20.9610 c6         1 A1I      -0.073900
     42 H5           6.7620    19.8340   -20.0140 ha         1 A1I       0.109000
     43 H13          9.9840    22.3810   -18.8050 h1         1 A1I       0.052700
     44 H7           7.6840    17.8430   -14.1350 h1         1 A1I       0.039367
     45 H8           7.8690    16.6260   -15.4080 h1         1 A1I       0.039367
     46 H6           8.6400    18.2150   -15.5790 h1         1 A1I       0.039367
     47 H9           7.7710    21.3050   -19.0990 h1         1 A1I       0.035200
     48 H10          6.4600    21.8690   -18.0670 h1         1 A1I       0.035200
     49 H12          8.3390    22.1730   -16.2440 hc         1 A1I       0.075200
     50 H11          8.1900    23.3440   -17.5370 hc         1 A1I       0.075200
     51 H15         10.5920    24.0240   -17.0930 hc         1 A1I       0.055700
     52 H16         10.7830    22.7620   -15.8780 hc         1 A1I       0.055700
     53 H14         11.8830    22.8350   -17.2630 hc         1 A1I       0.055700
     54 H17         10.0950    20.0810   -19.7230 h4         1 A1I       0.157000
     55 H4           5.2900    15.8720   -19.4560 ha         1 A1I       0.140000
     56 H2           4.9340    14.0780   -16.3730 h1         1 A1I       0.044033
     57 H3           4.1280    14.8440   -17.7530 h1         1 A1I       0.044033
     58 H1           5.7770    14.2030   -17.9280 h1         1 A1I       0.044033
     59 H18         10.8250    17.4550   -19.8380 hc         1 A1I       0.051700
     60 H19         11.8580    16.9000   -18.5420 hc         1 A1I       0.051700
     61 H20          8.8370    16.7710   -18.2360 hc         1 A1I       0.070700
     62 H23         10.3170    16.3820   -16.2260 hc         1 A1I       0.043033
     63 H21          9.3550    14.9690   -16.6480 hc         1 A1I       0.043033
     64 H22         11.0690    15.0340   -17.0690 hc         1 A1I       0.043033
     65 H25          9.0040    14.3790   -19.0160 h1         1 A1I       0.053200
     66 H24         10.6440    14.7230   -19.5850 h1         1 A1I       0.053200
     67 H26          7.9520    15.1260   -23.3330 h1         1 A1I       0.108700
     68 H28          9.0920    16.4620   -24.8710 hc         1 A1I       0.063700
     69 H27         10.2860    15.4130   -24.1360 hc         1 A1I       0.063700
     70 H29         11.0340    17.3160   -22.6670 hc         1 A1I       0.049200
     71 H30         11.1140    17.7710   -24.3580 hc         1 A1I       0.049200
     72 H31          9.9640    19.5430   -22.9740 hc         1 A1I       0.047700
     73 H32          8.9060    18.8780   -24.2100 hc         1 A1I       0.047700
     74 H33          8.9800    18.2250   -21.2380 h1         1 A1I       0.047200
     75 H34          7.7170    19.0530   -22.1190 h1         1 A1I       0.047200
     76 H35          5.9210    18.7250   -21.8060 hc         1 A1I       0.060700
     77 H36          3.9210    16.5210   -21.2370 hc         1 A1I       0.070700
     78 H38          4.5120    16.7310   -23.6490 hc         1 A1I       0.041200
     79 H37          4.2280    18.4600   -23.5680 hc         1 A1I       0.041200
     80 H39          2.2720    17.2930   -24.5270 hc         1 A1I       0.040450
     81 H40          2.1510    16.2690   -23.1090 hc         1 A1I       0.040450
     82 H41          1.7750    19.2970   -23.1750 hc         1 A1I       0.037700
     83 H42          0.5080    18.1070   -22.9420 hc         1 A1I       0.037700
     84 H43          1.2490    19.1160   -20.7720 hc         1 A1I       0.040450
     85 H44          1.5280    17.3860   -20.8090 hc         1 A1I       0.040450
     86 H46          3.4880    18.5480   -19.8810 hc         1 A1I       0.041200
     87 H45          3.6220    19.5510   -21.3140 hc         1 A1I       0.041200
     88 O1           5.6140    15.9290   -16.7710 os         1 A1I      -0.325100
@<TRIPOS>BOND
     1     1     3 ar  
     2     1    14 ar  
     3     1    35 1   
     4     2    11 2   
     5     2    13 1   
     6     2    20 1   
     7     3     4 ar  
     8     3    42 1   
     9     4     6 ar  
    10     4    19 1   
    11     5     9 1   
    12     5    10 1   
    13     5    12 1   
    14     5    43 1   
    15     6    17 ar  
    16     6    18 1   
    17     7    18 1   
    18     7    44 1   
    19     7    45 1   
    20     7    46 1   
    21     8     9 1   
    22     8    19 1   
    23     8    47 1   
    24     8    48 1   
    25     9    49 1   
    26     9    50 1   
    27    10    51 1   
    28    10    52 1   
    29    10    53 1   
    30    11    12 1   
    31    11    54 1   
    32    12    15 1   
    33    13    15 2   
    34    14    17 ar  
    35    14    55 1   
    36    16    56 1   
    37    16    57 1   
    38    16    58 1   
    39    16    88 1   
    40    17    88 1   
    41    20    21 1   
    42    20    59 1   
    43    20    60 1   
    44    21    22 1   
    45    21    23 1   
    46    21    61 1   
    47    22    62 1   
    48    22    63 1   
    49    22    64 1   
    50    23    24 1   
    51    23    65 1   
    52    23    66 1   
    53    24    25 1   
    54    25    26 2   
    55    25    27 1   
    56    27    28 1   
    57    27    32 1   
    58    27    67 1   
    59    28    29 1   
    60    28    68 1   
    61    28    69 1   
    62    29    30 1   
    63    29    70 1   
    64    29    71 1   
    65    30    31 1   
    66    30    72 1   
    67    30    73 1   
    68    31    32 1   
    69    31    74 1   
    70    31    75 1   
    71    32    33 1   
    72    33    34 2   
    73    33    35 1   
    74    35    36 1   
    75    35    76 1   
    76    36    37 1   
    77    36    41 1   
    78    36    77 1   
    79    37    38 1   
    80    37    78 1   
    81    37    79 1   
    82    38    39 1   
    83    38    80 1   
    84    38    81 1   
    85    39    40 1   
    86    39    82 1   
    87    39    83 1   
    88    40    41 1   
    89    40    84 1   
    90    40    85 1   
    91    41    86 1   
    92    41    87 1   
@<TRIPOS>SUBSTRUCTURE
     1 A1I         1 TEMP              0 ****  ****    0 ROOT
