@<TRIPOS>MOLECULE
A1I
   88    92     1     0     0
SMALL
abcg2


@<TRIPOS>ATOM
      1 C4          -5.9940   -17.8620   -19.8410 ca         1 A1I      -0.042300
      2 C14        -11.2770   -18.5950   -17.2990 cc         1 A1I       0.208300
      3 C5          -6.2490   -19.1340   -19.3530 ca         1 A1I      -0.158000
      4 C6          -6.4040   -19.3520   -17.9870 ca         1 A1I       0.123100
      5 C11         -8.6050   -21.6870   -18.1580 c3         1 A1I      -0.125400
      6 C7          -6.3360   -18.2840   -17.0910 ca         1 A1I       0.053100
      7 C8          -7.6070   -17.9930   -15.1170 c3         1 A1I       0.144900
      8 C9          -7.8130   -21.0270   -17.0300 c3         1 A1I       0.184300
      9 C10         -7.5760   -21.9450   -15.8500 c3         1 A1I      -0.095100
     10 C12        -10.0750   -21.9100   -17.8170 c3         1 A1I       0.076600
     11 C13        -10.8400   -19.5530   -18.1810 cd         1 A1I      -0.219000
     12 N1         -10.7060   -20.6600   -17.4330 na         1 A1I       0.126800
     13 N2         -11.3790   -19.1790   -16.0860 nc         1 A1I      -0.361000
     14 C3          -5.8990   -16.7940   -18.9500 ca         1 A1I      -0.178000
     15 N3         -11.0260   -20.4190   -16.1750 nd         1 A1I      -0.207800
     16 C1          -5.5670   -14.7350   -17.0700 c3         1 A1I       0.144900
     17 C2          -6.0610   -16.9990   -17.5850 ca         1 A1I       0.123100
     18 O2          -6.4520   -18.5210   -15.7600 os         1 A1I      -0.340100
     19 O3          -6.5330   -20.6240   -17.5320 os         1 A1I      -0.355100
     20 C15        -11.5330   -17.1500   -17.5500 c3         1 A1I      -0.097700
     21 C16        -10.3170   -16.4690   -18.1770 c3         1 A1I      -0.073400
     22 C17        -10.5840   -15.0150   -18.5380 c3         1 A1I      -0.105400
     23 C18         -9.3820   -14.3070   -19.1320 c3         1 A1I       0.166600
     24 O4          -8.8340   -14.9850   -20.2730 os         1 A1I      -0.433100
     25 C19         -9.4230   -14.8390   -21.4460 c          1 A1I       0.575100
     26 O5         -10.4150   -14.1780   -21.6300 o          1 A1I      -0.493000
     27 C20         -8.6570   -15.5250   -22.5750 c6         1 A1I       0.045700
     28 C21         -9.5670   -15.9120   -23.7390 c6         1 A1I      -0.074400
     29 C22        -10.4110   -17.1380   -23.4270 c6         1 A1I      -0.076400
     30 C23         -9.5050   -18.2820   -23.0000 c6         1 A1I      -0.094400
     31 C24         -8.6290   -17.8670   -21.8290 c6         1 A1I       0.102000
     32 N4          -7.8700   -16.6590   -22.1230 n          1 A1I      -0.394800
     33 C25         -6.5660   -16.4560   -21.8050 c          1 A1I       0.618100
     34 O6          -6.0580   -15.3470   -21.8930 o          1 A1I      -0.602100
     35 C26         -5.7420   -17.6500   -21.3200 c3         1 A1I      -0.083400
     36 C27         -4.2450   -17.4640   -21.6360 c6         1 A1I      -0.045700
     37 C28         -4.0030   -17.4270   -23.1470 c6         1 A1I      -0.073400
     38 C29         -2.5250   -17.2660   -23.4870 c6         1 A1I      -0.072400
     39 C30         -1.6880   -18.3710   -22.8550 c6         1 A1I      -0.075400
     40 C31         -1.9230   -18.4300   -21.3510 c6         1 A1I      -0.072400
     41 C32         -3.4030   -18.5810   -21.0130 c6         1 A1I      -0.073400
     42 H5          -6.3000   -19.9810   -20.0270 ha         1 A1I       0.121000
     43 H14         -8.1610   -22.6520   -18.4150 hc         1 A1I       0.061200
     44 H13         -8.5480   -21.0630   -19.0550 hc         1 A1I       0.061200
     45 H7          -7.6870   -18.4940   -14.1550 h1         1 A1I       0.040367
     46 H8          -7.5300   -16.9180   -14.9480 h1         1 A1I       0.040367
     47 H6          -8.5170   -18.1910   -15.6890 h1         1 A1I       0.040367
     48 H9          -8.3580   -20.1430   -16.6880 h1         1 A1I       0.051700
     49 H12         -7.0140   -21.4310   -15.0710 hc         1 A1I       0.051033
     50 H10         -8.5210   -22.2690   -15.4150 hc         1 A1I       0.051033
     51 H11         -7.0220   -22.8370   -16.1500 hc         1 A1I       0.051033
     52 H15        -10.6030   -22.3200   -18.6780 h1         1 A1I       0.075700
     53 H16        -10.2090   -22.6010   -16.9870 h1         1 A1I       0.075700
     54 H17        -10.6150   -19.5240   -19.2340 h4         1 A1I       0.164000
     55 H4          -5.6760   -15.8060   -19.3290 ha         1 A1I       0.140000
     56 H2          -5.4930   -14.1350   -16.1660 h1         1 A1I       0.043700
     57 H3          -4.5980   -14.7360   -17.5750 h1         1 A1I       0.043700
     58 H1          -6.3090   -14.2830   -17.7320 h1         1 A1I       0.043700
     59 H19        -11.7950   -16.6650   -16.6070 hc         1 A1I       0.059700
     60 H18        -12.3950   -17.0290   -18.2130 hc         1 A1I       0.059700
     61 H21        -10.0280   -17.0230   -19.0720 hc         1 A1I       0.044200
     62 H20         -9.4670   -16.5350   -17.4890 hc         1 A1I       0.044200
     63 H23        -10.8610   -14.4570   -17.6380 hc         1 A1I       0.056700
     64 H22        -11.4400   -14.9470   -19.2140 hc         1 A1I       0.056700
     65 H25         -8.5620   -14.2880   -18.4140 h1         1 A1I       0.060700
     66 H24         -9.6260   -13.2750   -19.3920 h1         1 A1I       0.060700
     67 H26         -7.9600   -14.7640   -22.9340 h1         1 A1I       0.109700
     68 H28         -8.9270   -16.1220   -24.6000 hc         1 A1I       0.063700
     69 H27        -10.1870   -15.0590   -24.0120 hc         1 A1I       0.063700
     70 H29        -11.1240   -16.9150   -22.6270 hc         1 A1I       0.050200
     71 H30        -11.0000   -17.4190   -24.3010 hc         1 A1I       0.050200
     72 H31        -10.0880   -19.1550   -22.7010 hc         1 A1I       0.048200
     73 H32         -8.8720   -18.5910   -23.8370 hc         1 A1I       0.048200
     74 H33         -9.2580   -17.6940   -20.9480 h1         1 A1I       0.047700
     75 H34         -7.9580   -18.6790   -21.5680 h1         1 A1I       0.047700
     76 H35         -6.0560   -18.5550   -21.8480 hc         1 A1I       0.063700
     77 H36         -3.9170   -16.5130   -21.2030 hc         1 A1I       0.071700
     78 H38         -4.5740   -16.6220   -23.6110 hc         1 A1I       0.041700
     79 H37         -4.3700   -18.3630   -23.5850 hc         1 A1I       0.041700
     80 H39         -2.3930   -17.2600   -24.5720 hc         1 A1I       0.040700
     81 H40         -2.1730   -16.2920   -23.1280 hc         1 A1I       0.040700
     82 H41         -1.9630   -19.3320   -23.3020 hc         1 A1I       0.037700
     83 H42         -0.6270   -18.2190   -23.0700 hc         1 A1I       0.037700
     84 H43         -1.3580   -19.2550   -20.9090 hc         1 A1I       0.040700
     85 H44         -1.5440   -17.5120   -20.8880 hc         1 A1I       0.040700
     86 H46         -3.5260   -18.5910   -19.9280 hc         1 A1I       0.041700
     87 H45         -3.7650   -19.5510   -21.3740 hc         1 A1I       0.041700
     88 O1          -5.9460   -16.0320   -16.6570 os         1 A1I      -0.335100
@<TRIPOS>BOND
     1     1     3 ar  
     2     1    14 ar  
     3     1    35 1   
     4     2    11 2   
     5     2    13 1   
     6     2    20 1   
     7     3     4 ar  
     8     3    42 1   
     9     4     6 ar  
    10     4    19 1   
    11     5     8 1   
    12     5    10 1   
    13     5    43 1   
    14     5    44 1   
    15     6    17 ar  
    16     6    18 1   
    17     7    18 1   
    18     7    45 1   
    19     7    46 1   
    20     7    47 1   
    21     8     9 1   
    22     8    19 1   
    23     8    48 1   
    24     9    49 1   
    25     9    50 1   
    26     9    51 1   
    27    10    12 1   
    28    10    52 1   
    29    10    53 1   
    30    11    12 1   
    31    11    54 1   
    32    12    15 1   
    33    13    15 2   
    34    14    17 ar  
    35    14    55 1   
    36    16    56 1   
    37    16    57 1   
    38    16    58 1   
    39    16    88 1   
    40    17    88 1   
    41    20    21 1   
    42    20    59 1   
    43    20    60 1   
    44    21    22 1   
    45    21    61 1   
    46    21    62 1   
    47    22    23 1   
    48    22    63 1   
    49    22    64 1   
    50    23    24 1   
    51    23    65 1   
    52    23    66 1   
    53    24    25 1   
    54    25    26 2   
    55    25    27 1   
    56    27    28 1   
    57    27    32 1   
    58    27    67 1   
    59    28    29 1   
    60    28    68 1   
    61    28    69 1   
    62    29    30 1   
    63    29    70 1   
    64    29    71 1   
    65    30    31 1   
    66    30    72 1   
    67    30    73 1   
    68    31    32 1   
    69    31    74 1   
    70    31    75 1   
    71    32    33 1   
    72    33    34 2   
    73    33    35 1   
    74    35    36 1   
    75    35    76 1   
    76    36    37 1   
    77    36    41 1   
    78    36    77 1   
    79    37    38 1   
    80    37    78 1   
    81    37    79 1   
    82    38    39 1   
    83    38    80 1   
    84    38    81 1   
    85    39    40 1   
    86    39    82 1   
    87    39    83 1   
    88    40    41 1   
    89    40    84 1   
    90    40    85 1   
    91    41    86 1   
    92    41    87 1   
@<TRIPOS>SUBSTRUCTURE
     1 A1I         1 TEMP              0 ****  ****    0 ROOT
