@<TRIPOS>MOLECULE
A1I
   75    78     1     0     0
SMALL
abcg2


@<TRIPOS>ATOM
      1 CAK         -3.6740    12.0110    19.2420 c6         1 A1I      -0.072900
      2 CAL         -3.0900    10.6440    19.5880 c6         1 A1I      -0.072400
      3 CAM         -2.9010    10.4690    21.0890 c6         1 A1I      -0.075400
      4 CAN         -4.2020    10.7350    21.8350 c6         1 A1I      -0.072400
      5 CAO         -4.7770    12.1040    21.4820 c6         1 A1I      -0.072900
      6 CAJ         -4.9940    12.2620    19.9740 c6         1 A1I      -0.045700
      7 CAI         -5.5680    13.6520    19.6380 c3         1 A1I      -0.085400
      8 CAB         -6.9690    13.8290    20.2200 c          1 A1I       0.603100
      9 OAA         -7.6910    12.8610    20.4200 o          1 A1I      -0.603100
     10 N           -7.3980    15.0870    20.5170 n          1 A1I      -0.386800
     11 CAH         -6.8180    16.2780    19.8970 c6         1 A1I       0.103000
     12 CAG         -7.0830    17.5460    20.6880 c6         1 A1I      -0.086400
     13 CAF         -8.5590    17.6940    21.0120 c6         1 A1I      -0.079400
     14 CB          -8.9860    16.4840    21.8230 c6         1 A1I      -0.076400
     15 CA          -8.7290    15.1610    21.0940 c6         1 A1I       0.052700
     16 C           -9.8460    14.8700    20.1040 c          1 A1I       0.581100
     17 O          -10.9410    14.5070    20.4560 o          1 A1I      -0.491000
     18 OBB         -9.5100    15.0810    18.8430 os         1 A1I      -0.430100
     19 CBA        -10.4990    14.8080    17.8420 c3         1 A1I       0.161600
     20 CAZ         -9.9570    15.2160    16.5010 c3         1 A1I       0.148600
     21 OAY         -9.8710    16.6160    16.4200 os         1 A1I      -0.444000
     22 CAX         -9.5020    17.0670    15.1320 c3         1 A1I       0.190800
     23 CBI         -8.0490    16.8500    14.8340 c2         1 A1I      -0.247200
     24 CAW         -7.5960    15.9930    13.9250 c2         1 A1I      -0.231200
     25 CBJ         -6.1430    15.8250    13.6160 c3         1 A1I       0.190800
     26 OAV         -5.6230    14.5620    14.0480 os         1 A1I      -0.322100
     27 CAU         -5.6170    14.3670    15.3940 ca         1 A1I       0.031100
     28 CAR         -6.5320    13.4790    15.9660 ca         1 A1I       0.155100
     29 OAS         -7.3840    12.8890    15.1080 os         1 A1I      -0.327600
     30 CAT         -8.2630    11.9010    15.6050 c3         1 A1I       0.144400
     31 CAQ         -6.5260    13.2520    17.3410 ca         1 A1I      -0.218500
     32 CAP         -5.6080    13.9140    18.1470 ca         1 A1I      -0.010300
     33 CBH         -4.6870    14.7870    17.5840 ca         1 A1I      -0.218500
     34 CBE         -4.6780    15.0050    16.2100 ca         1 A1I       0.155100
     35 OBF         -3.7990    15.8060    15.5800 os         1 A1I      -0.327600
     36 CBG         -2.8260    16.4820    16.3510 c3         1 A1I       0.144400
     37 HAK         -2.9550    12.7950    19.5090 hc         1 A1I       0.041200
     38 HB6         -3.8170    12.0800    18.1620 hc         1 A1I       0.041200
     39 HAL         -3.7630     9.8640    19.2140 hc         1 A1I       0.040450
     40 HB7         -2.1400    10.5040    19.0660 hc         1 A1I       0.040450
     41 HAM         -2.5310     9.4650    21.3120 hc         1 A1I       0.037200
     42 HB8         -2.1340    11.1680    21.4420 hc         1 A1I       0.037200
     43 HAN         -4.9340     9.9600    21.5830 hc         1 A1I       0.040450
     44 HB9         -4.0420    10.6680    22.9140 hc         1 A1I       0.040450
     45 HCA         -4.0850    12.8840    21.8210 hc         1 A1I       0.041200
     46 HAO         -5.7100    12.2570    22.0290 hc         1 A1I       0.041200
     47 HAJ         -5.7100    11.5010    19.6440 hc         1 A1I       0.071700
     48 HAI         -4.8950    14.3870    20.0900 hc         1 A1I       0.065700
     49 HAH         -5.7440    16.1440    19.8060 h1         1 A1I       0.052200
     50 HB5         -7.2110    16.3970    18.8820 h1         1 A1I       0.052200
     51 HAG         -6.5050    17.5310    21.6170 hc         1 A1I       0.047200
     52 HB4         -6.7170    18.3880    20.0990 hc         1 A1I       0.047200
     53 HAF         -8.7400    18.6070    21.5810 hc         1 A1I       0.053700
     54 HB3         -9.1440    17.7730    20.0900 hc         1 A1I       0.053700
     55 HB2        -10.0410    16.5280    22.0990 hc         1 A1I       0.059700
     56 HB1         -8.4210    16.4650    22.7580 hc         1 A1I       0.059700
     57 HA          -8.8130    14.3720    21.8430 h1         1 A1I       0.102700
     58 HCF        -11.4240    15.3440    18.0660 h1         1 A1I       0.058200
     59 HBA        -10.7210    13.7390    17.8260 h1         1 A1I       0.058200
     60 HCE        -10.6450    14.8210    15.7390 h1         1 A1I       0.038200
     61 HAZ         -8.9860    14.7420    16.3250 h1         1 A1I       0.038200
     62 HCD         -9.7260    18.1360    15.1100 h1         1 A1I       0.048200
     63 HAX        -10.1190    16.5860    14.3620 h1         1 A1I       0.048200
     64 HBI         -7.3410    17.4430    15.4080 ha         1 A1I       0.177000
     65 HAW         -8.2970    15.3830    13.3610 ha         1 A1I       0.179000
     66 HBJ         -5.9800    15.8410    12.5370 h1         1 A1I       0.056700
     67 HCI         -5.5710    16.6490    14.0490 h1         1 A1I       0.056700
     68 HCC         -8.8290    11.5350    14.7520 h1         1 A1I       0.042367
     69 HAT         -7.7230    11.0640    16.0560 h1         1 A1I       0.042367
     70 HCB         -8.9630    12.3020    16.3420 h1         1 A1I       0.042367
     71 HAQ         -7.2260    12.5620    17.7900 ha         1 A1I       0.128000
     72 HBH         -3.9700    15.2770    18.2290 ha         1 A1I       0.128000
     73 HCH         -2.2280    17.0610    15.6510 h1         1 A1I       0.042367
     74 HBG         -3.2790    17.1630    17.0750 h1         1 A1I       0.042367
     75 HCG         -2.1710    15.7870    16.8820 h1         1 A1I       0.042367
@<TRIPOS>BOND
     1     1     2 1   
     2     1     6 1   
     3     1    37 1   
     4     1    38 1   
     5     2     3 1   
     6     2    39 1   
     7     2    40 1   
     8     3     4 1   
     9     3    41 1   
    10     3    42 1   
    11     4     5 1   
    12     4    43 1   
    13     4    44 1   
    14     5     6 1   
    15     5    45 1   
    16     5    46 1   
    17     6     7 1   
    18     6    47 1   
    19     7     8 1   
    20     7    32 1   
    21     7    48 1   
    22     8     9 2   
    23     8    10 1   
    24    10    11 1   
    25    10    15 1   
    26    11    12 1   
    27    11    49 1   
    28    11    50 1   
    29    12    13 1   
    30    12    51 1   
    31    12    52 1   
    32    13    14 1   
    33    13    53 1   
    34    13    54 1   
    35    14    15 1   
    36    14    55 1   
    37    14    56 1   
    38    15    16 1   
    39    15    57 1   
    40    16    17 2   
    41    16    18 1   
    42    18    19 1   
    43    19    20 1   
    44    19    58 1   
    45    19    59 1   
    46    20    21 1   
    47    20    60 1   
    48    20    61 1   
    49    21    22 1   
    50    22    23 1   
    51    22    62 1   
    52    22    63 1   
    53    23    24 2   
    54    23    64 1   
    55    24    25 1   
    56    24    65 1   
    57    25    26 1   
    58    25    66 1   
    59    25    67 1   
    60    26    27 1   
    61    27    28 ar  
    62    27    34 ar  
    63    28    29 1   
    64    28    31 ar  
    65    29    30 1   
    66    30    68 1   
    67    30    69 1   
    68    30    70 1   
    69    31    32 ar  
    70    31    71 1   
    71    32    33 ar  
    72    33    34 ar  
    73    33    72 1   
    74    34    35 1   
    75    35    36 1   
    76    36    73 1   
    77    36    74 1   
    78    36    75 1   
@<TRIPOS>SUBSTRUCTURE
     1 A1I         1 TEMP              0 ****  ****    0 ROOT
