@<TRIPOS>MOLECULE
A1I
   88    92     1     0     0
SMALL
abcg2


@<TRIPOS>ATOM
      1 C4           5.8070    18.0430   -19.7550 ca         1 A1I      -0.013300
      2 C14         10.3680    18.7760   -17.8660 cc         1 A1I       0.212300
      3 C5           6.2970    19.2110   -19.1890 ca         1 A1I      -0.225000
      4 C6           6.4740    19.3020   -17.8080 ca         1 A1I       0.159100
      5 C11          8.0600    22.4620   -17.0180 c3         1 A1I      -0.096400
      6 C7           6.1130    18.2310   -16.9900 ca         1 A1I       0.037100
      7 C8           7.3760    17.9220   -15.0370 c3         1 A1I       0.143900
      8 C9           7.0140    21.6550   -17.7760 c3         1 A1I       0.181300
      9 C10          5.6330    22.2830   -17.7070 c3         1 A1I      -0.121100
     10 C12          9.4950    22.2200   -17.4700 c3         1 A1I       0.083600
     11 C13          9.9020    19.9370   -18.4330 cd         1 A1I      -0.217000
     12 N1           9.9130    20.8310   -17.4310 na         1 A1I       0.135800
     13 N2          10.6300    19.0430   -16.5670 nc         1 A1I      -0.365000
     14 C3           5.5120    16.9460   -18.9490 ca         1 A1I      -0.207000
     15 N3          10.3470    20.2790   -16.3160 nd         1 A1I      -0.198800
     16 C1           4.9900    14.7930   -17.2270 c3         1 A1I       0.142900
     17 C2           5.6640    17.0390   -17.5700 ca         1 A1I       0.152100
     18 O2           6.1650    18.3530   -15.6370 os         1 A1I      -0.333100
     19 O3           7.0000    20.3630   -17.1700 os         1 A1I      -0.337100
     20 C15         10.5510    17.4470   -18.5140 c3         1 A1I      -0.086700
     21 C16          9.4870    16.4100   -18.1130 c3         1 A1I      -0.063700
     22 C17          9.8020    15.7750   -16.7640 c3         1 A1I      -0.093100
     23 C18          9.3770    15.3090   -19.1530 c3         1 A1I       0.165600
     24 O4           8.8770    15.8890   -20.3630 os         1 A1I      -0.446100
     25 C19          8.9340    15.1950   -21.4830 c          1 A1I       0.580100
     26 O5           9.3740    14.0750   -21.5660 o          1 A1I      -0.490000
     27 C20          8.4060    15.9620   -22.6900 c6         1 A1I       0.048700
     28 C21          9.5490    16.2930   -23.6520 c6         1 A1I      -0.077400
     29 C22         10.3700    17.4810   -23.1870 c6         1 A1I      -0.077400
     30 C23          9.4380    18.6700   -23.0460 c6         1 A1I      -0.088400
     31 C24          8.3170    18.3920   -22.0590 c6         1 A1I       0.104000
     32 N4           7.6210    17.1310   -22.3210 n          1 A1I      -0.384800
     33 C25          6.3800    16.8550   -21.8320 c          1 A1I       0.608100
     34 O6           5.9500    15.7090   -21.8320 o          1 A1I      -0.602100
     35 C26          5.5380    17.9820   -21.2470 c3         1 A1I      -0.085400
     36 C27          4.0420    17.7990   -21.5640 c6         1 A1I      -0.045700
     37 C28          3.7920    17.8260   -23.0730 c6         1 A1I      -0.073400
     38 C29          2.3090    17.6920   -23.4080 c6         1 A1I      -0.072400
     39 C30          1.4850    18.7740   -22.7200 c6         1 A1I      -0.075400
     40 C31          1.7290    18.7650   -21.2160 c6         1 A1I      -0.072400
     41 C32          3.2120    18.8900   -20.8840 c6         1 A1I      -0.073400
     42 H5           6.5280    20.0470   -19.8360 ha         1 A1I       0.109000
     43 H14          7.9540    22.2850   -15.9450 hc         1 A1I       0.075200
     44 H13          7.8670    23.5250   -17.1780 hc         1 A1I       0.075200
     45 H7           7.2660    18.0550   -13.9610 h1         1 A1I       0.038700
     46 H8           7.5760    16.8660   -15.2360 h1         1 A1I       0.038700
     47 H6           8.2310    18.5110   -15.3750 h1         1 A1I       0.038700
     48 H9           7.3250    21.5830   -18.8240 h1         1 A1I       0.031700
     49 H11          5.6410    23.2560   -18.1970 hc         1 A1I       0.050700
     50 H12          4.8870    21.6660   -18.2110 hc         1 A1I       0.050700
     51 H10          5.3190    22.4240   -16.6720 hc         1 A1I       0.050700
     52 H16         10.1860    22.7890   -16.8490 h1         1 A1I       0.066700
     53 H15          9.6240    22.5580   -18.4970 h1         1 A1I       0.066700
     54 H17          9.5890    20.1800   -19.4340 h4         1 A1I       0.158000
     55 H4           5.1490    16.0350   -19.4030 ha         1 A1I       0.142000
     56 H2           4.8550    14.1340   -16.3730 h1         1 A1I       0.044033
     57 H3           4.0460    14.8540   -17.7750 h1         1 A1I       0.044033
     58 H1           5.7510    14.3660   -17.8860 h1         1 A1I       0.044033
     59 H19         11.5430    17.0470   -18.2810 hc         1 A1I       0.052700
     60 H18         10.5320    17.6060   -19.5940 hc         1 A1I       0.052700
     61 H20          8.5150    16.9130   -18.0460 hc         1 A1I       0.070700
     62 H23          9.9560    16.5330   -15.9980 hc         1 A1I       0.043367
     63 H21          8.9910    15.1250   -16.4330 hc         1 A1I       0.043367
     64 H22         10.7140    15.1750   -16.8190 hc         1 A1I       0.043367
     65 H25          8.6880    14.5290   -18.8190 h1         1 A1I       0.051700
     66 H24         10.3530    14.8480   -19.3280 h1         1 A1I       0.051700
     67 H26          7.7470    15.2630   -23.2060 h1         1 A1I       0.109700
     68 H28          9.1110    16.5220   -24.6270 hc         1 A1I       0.063200
     69 H27         10.1590    15.4000   -23.7880 hc         1 A1I       0.063200
     70 H29         10.8610    17.2670   -22.2320 hc         1 A1I       0.050200
     71 H30         11.1620    17.6950   -23.9070 hc         1 A1I       0.050200
     72 H31          9.9700    19.5570   -22.6970 hc         1 A1I       0.047700
     73 H32          9.0160    18.9150   -24.0250 hc         1 A1I       0.047700
     74 H33          8.7230    18.3900   -21.0430 h1         1 A1I       0.045700
     75 H34          7.6090    19.2140   -22.1170 h1         1 A1I       0.045700
     76 H35          5.8240    18.9420   -21.6790 hc         1 A1I       0.060700
     77 H36          3.7140    16.8290   -21.1750 hc         1 A1I       0.071700
     78 H38          4.3500    17.0300   -23.5720 hc         1 A1I       0.040950
     79 H37          4.1680    18.7730   -23.4790 hc         1 A1I       0.040950
     80 H39          2.1690    17.7360   -24.4900 hc         1 A1I       0.040700
     81 H40          1.9530    16.7070   -23.0900 hc         1 A1I       0.040700
     82 H41          1.7620    19.7530   -23.1270 hc         1 A1I       0.037700
     83 H42          0.4220    18.6370   -22.9350 hc         1 A1I       0.037700
     84 H43          1.1720    19.5720   -20.7350 hc         1 A1I       0.040700
     85 H44          1.3450    17.8300   -20.7940 hc         1 A1I       0.040700
     86 H46          3.3470    18.8500   -19.8010 hc         1 A1I       0.040950
     87 H45          3.5790    19.8730   -21.2050 hc         1 A1I       0.040950
     88 O1           5.3860    16.0460   -16.7080 os         1 A1I      -0.325100
@<TRIPOS>BOND
     1     1     3 ar  
     2     1    14 ar  
     3     1    35 1   
     4     2    11 2   
     5     2    13 1   
     6     2    20 1   
     7     3     4 ar  
     8     3    42 1   
     9     4     6 ar  
    10     4    19 1   
    11     5     8 1   
    12     5    10 1   
    13     5    43 1   
    14     5    44 1   
    15     6    17 ar  
    16     6    18 1   
    17     7    18 1   
    18     7    45 1   
    19     7    46 1   
    20     7    47 1   
    21     8     9 1   
    22     8    19 1   
    23     8    48 1   
    24     9    49 1   
    25     9    50 1   
    26     9    51 1   
    27    10    12 1   
    28    10    52 1   
    29    10    53 1   
    30    11    12 1   
    31    11    54 1   
    32    12    15 1   
    33    13    15 2   
    34    14    17 ar  
    35    14    55 1   
    36    16    56 1   
    37    16    57 1   
    38    16    58 1   
    39    16    88 1   
    40    17    88 1   
    41    20    21 1   
    42    20    59 1   
    43    20    60 1   
    44    21    22 1   
    45    21    23 1   
    46    21    61 1   
    47    22    62 1   
    48    22    63 1   
    49    22    64 1   
    50    23    24 1   
    51    23    65 1   
    52    23    66 1   
    53    24    25 1   
    54    25    26 2   
    55    25    27 1   
    56    27    28 1   
    57    27    32 1   
    58    27    67 1   
    59    28    29 1   
    60    28    68 1   
    61    28    69 1   
    62    29    30 1   
    63    29    70 1   
    64    29    71 1   
    65    30    31 1   
    66    30    72 1   
    67    30    73 1   
    68    31    32 1   
    69    31    74 1   
    70    31    75 1   
    71    32    33 1   
    72    33    34 2   
    73    33    35 1   
    74    35    36 1   
    75    35    76 1   
    76    36    37 1   
    77    36    41 1   
    78    36    77 1   
    79    37    38 1   
    80    37    78 1   
    81    37    79 1   
    82    38    39 1   
    83    38    80 1   
    84    38    81 1   
    85    39    40 1   
    86    39    82 1   
    87    39    83 1   
    88    40    41 1   
    89    40    84 1   
    90    40    85 1   
    91    41    86 1   
    92    41    87 1   
@<TRIPOS>SUBSTRUCTURE
     1 A1I         1 TEMP              0 ****  ****    0 ROOT
