@<TRIPOS>MOLECULE
A1I
   78    81     1     0     0
SMALL
abcg2


@<TRIPOS>ATOM
      1 C4          -5.6040    13.7340    17.7520 ca         1 A1I      -0.006300
      2 C14         -9.6590    16.4070    17.0840 c3         1 A1I       0.166600
      3 C5          -5.2060    14.9590    17.2310 ca         1 A1I      -0.213000
      4 C6          -5.2580    15.1900    15.8580 ca         1 A1I       0.154100
      5 C11         -9.4840    15.3550    13.3310 c3         1 A1I       0.182300
      6 C7          -4.4730    17.4150    16.0970 c3         1 A1I       0.144900
      7 C8          -5.7190    14.1900    14.9970 ca         1 A1I       0.023100
      8 C9          -6.9440    15.2210    13.2890 c3         1 A1I       0.159600
      9 C10         -8.2580    14.4520    13.3420 c3         1 A1I      -0.115400
     10 C12         -9.5890    16.2760    14.5610 c3         1 A1I       0.137300
     11 C13         -9.3430    15.5460    15.8780 c3         1 A1I      -0.109400
     12 N1          -7.4860    14.9480    20.1880 n          1 A1I      -0.398800
     13 C3          -6.0190    12.7200    16.8980 ca         1 A1I      -0.213000
     14 C1          -6.8140    10.7320    15.0850 c3         1 A1I       0.144900
     15 C2          -6.0590    12.9380    15.5220 ca         1 A1I       0.154100
     16 O2          -4.8930    16.3460    15.2740 os         1 A1I      -0.325600
     17 O3          -5.8170    14.4200    13.6590 os         1 A1I      -0.321100
     18 O4         -10.6070    14.5040    13.2550 oh         1 A1I      -0.657000
     19 O5         -10.8880    16.8460    14.5210 oh         1 A1I      -0.676000
     20 O6          -9.1010    15.7420    18.2280 os         1 A1I      -0.439100
     21 C15         -9.5850    15.9930    19.4320 c          1 A1I       0.580100
     22 O7         -10.4970    16.7480    19.6560 o          1 A1I      -0.491000
     23 C16         -8.8920    15.1480    20.4990 c6         1 A1I       0.045700
     24 C17         -9.0690    15.7160    21.9040 c6         1 A1I      -0.075400
     25 C18         -8.2290    16.9640    22.1360 c6         1 A1I      -0.076400
     26 C19         -6.7770    16.6880    21.7720 c6         1 A1I      -0.096400
     27 C20         -6.6690    16.1420    20.3570 c6         1 A1I       0.106000
     28 C21         -7.0930    13.7550    19.6770 c          1 A1I       0.621100
     29 O8          -7.8830    12.8350    19.5170 o          1 A1I      -0.600100
     30 C22         -5.6350    13.5550    19.2570 c3         1 A1I      -0.083400
     31 C23         -5.1030    12.2120    19.7770 c6         1 A1I      -0.047700
     32 C24         -5.1730    12.1670    21.3060 c6         1 A1I      -0.074400
     33 C25         -4.6170    10.8610    21.8620 c6         1 A1I      -0.072900
     34 C26         -3.1860    10.6250    21.3950 c6         1 A1I      -0.075400
     35 C27         -3.0990    10.6750    19.8750 c6         1 A1I      -0.072900
     36 C28         -3.6590    11.9840    19.3260 c6         1 A1I      -0.074400
     37 H19         -9.1970    17.3950    17.0010 h1         1 A1I       0.047700
     38 H20        -10.7320    16.5410    17.2090 h1         1 A1I       0.047700
     39 H5          -4.8540    15.7300    17.9030 ha         1 A1I       0.124500
     40 H13         -9.4420    16.0100    12.4460 h1         1 A1I       0.030700
     41 H7          -4.2500    18.2450    15.4320 h1         1 A1I       0.042200
     42 H8          -5.2540    17.7240    16.7970 h1         1 A1I       0.042200
     43 H6          -3.5710    17.1660    16.6620 h1         1 A1I       0.042200
     44 H10         -6.7460    15.5610    12.2720 h1         1 A1I       0.047200
     45 H9          -6.9820    16.1130    13.9190 h1         1 A1I       0.047200
     46 H11         -8.3160    13.7730    12.4880 hc         1 A1I       0.071200
     47 H12         -8.2990    13.8290    14.2370 hc         1 A1I       0.071200
     48 H15         -8.8350    17.0660    14.4610 h1         1 A1I       0.031700
     49 H17         -9.9320    14.6250    15.9180 hc         1 A1I       0.074200
     50 H18         -8.2890    15.2580    15.9250 hc         1 A1I       0.074200
     51 H4          -6.3140    11.7640    17.3090 ha         1 A1I       0.124500
     52 H2          -7.0670    10.1500    14.2020 h1         1 A1I       0.042200
     53 H3          -6.0060    10.2260    15.6190 h1         1 A1I       0.042200
     54 H1          -7.6910    10.7790    15.7360 h1         1 A1I       0.042200
     55 H14        -11.3950    15.0570    13.2760 ho         1 A1I       0.461000
     56 H16        -10.8350    17.7760    14.7570 ho         1 A1I       0.449000
     57 H21         -9.3840    14.1730    20.4580 h1         1 A1I       0.113700
     58 H22        -10.1260    15.9110    22.0880 hc         1 A1I       0.062200
     59 H23         -8.7680    14.9380    22.6110 hc         1 A1I       0.062200
     60 H25         -8.3100    17.2790    23.1770 hc         1 A1I       0.050700
     61 H24         -8.6070    17.7910    21.5290 hc         1 A1I       0.050700
     62 H27         -6.3440    15.9630    22.4680 hc         1 A1I       0.049200
     63 H26         -6.1780    17.5980    21.8410 hc         1 A1I       0.049200
     64 H29         -5.6310    15.9320    20.1290 h1         1 A1I       0.046200
     65 H28         -6.9900    16.9050    19.6380 h1         1 A1I       0.046200
     66 H30         -4.9840    14.3150    19.6900 hc         1 A1I       0.060700
     67 H31         -5.7180    11.3970    19.3830 hc         1 A1I       0.070700
     68 H32         -4.5970    13.0090    21.7100 hc         1 A1I       0.040700
     69 H33         -6.2010    12.3000    21.6520 hc         1 A1I       0.040700
     70 H35         -5.2490    10.0310    21.5280 hc         1 A1I       0.040950
     71 H34         -4.6680    10.8700    22.9530 hc         1 A1I       0.040950
     72 H37         -2.8170     9.6650    21.7670 hc         1 A1I       0.038200
     73 H36         -2.5350    11.3960    21.8210 hc         1 A1I       0.038200
     74 H39         -3.6640     9.8360    19.4530 hc         1 A1I       0.040950
     75 H38         -2.0650    10.5480    19.5470 hc         1 A1I       0.040950
     76 H40         -3.0400    12.8180    19.6780 hc         1 A1I       0.040700
     77 H41         -3.5940    11.9870    18.2360 hc         1 A1I       0.040700
     78 O1          -6.4270    12.0090    14.6220 os         1 A1I      -0.325600
@<TRIPOS>BOND
     1     1     3 ar  
     2     1    13 ar  
     3     1    30 1   
     4     2    11 1   
     5     2    20 1   
     6     2    37 1   
     7     2    38 1   
     8     3     4 ar  
     9     3    39 1   
    10     4     7 ar  
    11     4    16 1   
    12     5     9 1   
    13     5    10 1   
    14     5    18 1   
    15     5    40 1   
    16     6    16 1   
    17     6    41 1   
    18     6    42 1   
    19     6    43 1   
    20     7    15 ar  
    21     7    17 1   
    22     8     9 1   
    23     8    17 1   
    24     8    44 1   
    25     8    45 1   
    26     9    46 1   
    27     9    47 1   
    28    10    11 1   
    29    10    19 1   
    30    10    48 1   
    31    11    49 1   
    32    11    50 1   
    33    12    23 1   
    34    12    27 1   
    35    12    28 1   
    36    13    15 ar  
    37    13    51 1   
    38    14    52 1   
    39    14    53 1   
    40    14    54 1   
    41    14    78 1   
    42    15    78 1   
    43    18    55 1   
    44    19    56 1   
    45    20    21 1   
    46    21    22 2   
    47    21    23 1   
    48    23    24 1   
    49    23    57 1   
    50    24    25 1   
    51    24    58 1   
    52    24    59 1   
    53    25    26 1   
    54    25    60 1   
    55    25    61 1   
    56    26    27 1   
    57    26    62 1   
    58    26    63 1   
    59    27    64 1   
    60    27    65 1   
    61    28    29 2   
    62    28    30 1   
    63    30    31 1   
    64    30    66 1   
    65    31    32 1   
    66    31    36 1   
    67    31    67 1   
    68    32    33 1   
    69    32    68 1   
    70    32    69 1   
    71    33    34 1   
    72    33    70 1   
    73    33    71 1   
    74    34    35 1   
    75    34    72 1   
    76    34    73 1   
    77    35    36 1   
    78    35    74 1   
    79    35    75 1   
    80    36    76 1   
    81    36    77 1   
@<TRIPOS>SUBSTRUCTURE
     1 A1I         1 TEMP              0 ****  ****    0 ROOT
