@<TRIPOS>MOLECULE
A1I
   27    28     1     0     0
SMALL
abcg2


@<TRIPOS>ATOM
      1 C01         84.6890   -26.5000    17.4470 c3         1 A1I       0.084300
      2 C03         83.8480   -28.3320    16.1340 c          1 A1I       0.616000
      3 C06         82.9670   -30.1110    14.7290 c3         1 A1I       0.102300
      4 C07         84.1200   -30.5650    16.8570 cc         1 A1I       0.445900
      5 C09         84.6230   -32.3150    17.9020 cd         1 A1I       0.467400
      6 C11         85.7540   -31.4490    19.9350 c3         1 A1I       0.068600
      7 C12         84.8480   -31.0780    21.0880 c3         1 A1I       0.101600
      8 C14         84.7800   -30.1520    17.9850 cd         1 A1I      -0.356600
      9 C15         85.0360   -28.7830    18.2760 c          1 A1I       0.637600
     10 N02         84.5190   -27.9390    17.2890 n          1 A1I      -0.370400
     11 N05         83.6540   -29.6750    15.9340 n          1 A1I      -0.358300
     12 N08         84.0210   -31.9050    16.8020 nc         1 A1I      -0.704000
     13 N10         85.1090   -31.3140    18.6480 na         1 A1I      -0.119500
     14 O16         85.6250   -28.3560    19.2550 o          1 A1I      -0.552000
     15 CL13        83.3860   -32.1180    21.1130 cl         1 A1I      -0.272000
     16 H011        85.2110   -26.3100    18.3770 h1         1 A1I       0.058033
     17 H013        85.2730   -26.0890    16.6250 h1         1 A1I       0.058033
     18 H012        83.7230   -26.0010    17.4780 h1         1 A1I       0.058033
     19 H061        82.8980   -31.1930    14.7470 h1         1 A1I       0.059367
     20 H062        81.9630   -29.6950    14.6860 h1         1 A1I       0.059367
     21 H063        83.5170   -29.8080    13.8400 h1         1 A1I       0.059367
     22 H091        84.7360   -33.3480    18.1960 h5         1 A1I       0.066100
     23 H112        86.6360   -30.8110    19.9650 h1         1 A1I       0.081200
     24 H111        86.0900   -32.4800    20.0300 h1         1 A1I       0.081200
     25 H121        85.3760   -31.2250    22.0280 h1         1 A1I       0.088200
     26 H122        84.5140   -30.0460    21.0280 h1         1 A1I       0.088200
     27 O04         83.4490   -27.5110    15.3320 o          1 A1I      -0.550000
@<TRIPOS>BOND
     1     1    10 1   
     2     1    16 1   
     3     1    17 1   
     4     1    18 1   
     5     2    10 1   
     6     2    11 1   
     7     2    27 2   
     8     3    11 1   
     9     3    19 1   
    10     3    20 1   
    11     3    21 1   
    12     4     8 2   
    13     4    11 1   
    14     4    12 1   
    15     5    12 2   
    16     5    13 1   
    17     5    22 1   
    18     6     7 1   
    19     6    13 1   
    20     6    23 1   
    21     6    24 1   
    22     7    15 1   
    23     7    25 1   
    24     7    26 1   
    25     8     9 1   
    26     8    13 1   
    27     9    10 1   
    28     9    14 2   
@<TRIPOS>SUBSTRUCTURE
     1 A1I         1 TEMP              0 ****  ****    0 ROOT
