@<TRIPOS>MOLECULE
A1I
   40    41     1     0     0
SMALL
abcg2


@<TRIPOS>ATOM
      1 C1         -13.9650   -32.8810    94.4520 c6         1 A1I       0.157800
      2 C2         -12.6910   -32.0700    94.6520 c6         1 A1I       0.143300
      3 C3         -12.3770   -31.9570    96.1350 c6         1 A1I       0.132300
      4 C4         -13.5810   -31.4050    96.8960 c6         1 A1I       0.111300
      5 C5         -14.8600   -32.2470    96.6390 c6         1 A1I       0.173200
      6 C6         -16.0770   -31.5580    97.2580 c3         1 A1I       0.156600
      7 C7         -14.7250   -33.6430    97.2790 c3         1 A1I      -0.064400
      8 C8         -15.8220   -34.6430    96.9020 c3         1 A1I      -0.029100
      9 C9         -15.4950   -36.0130    97.4280 ca         1 A1I      -0.081300
     10 C10        -14.8800   -36.9570    96.6080 ca         1 A1I      -0.108000
     11 C11        -14.5300   -38.2090    97.0970 ca         1 A1I      -0.109500
     12 O2         -11.6490   -32.6940    93.9370 oh         1 A1I      -0.715000
     13 N5         -15.0910   -32.3670    95.2040 n7         1 A1I      -0.863400
     14 O3         -11.2550   -31.1110    96.2650 oh         1 A1I      -0.672000
     15 O4         -13.2120   -31.3480    98.2600 oh         1 A1I      -0.726000
     16 O6         -16.2350   -30.2720    96.6980 oh         1 A1I      -0.677000
     17 C14        -15.7510   -36.3550    98.7550 ca         1 A1I      -0.108000
     18 C13        -15.4000   -37.6040    99.2500 ca         1 A1I      -0.109500
     19 C12        -14.7890   -38.5370    98.4210 ca         1 A1I      -0.112000
     20 H1         -14.2340   -32.8860    93.3930 h1         1 A1I       0.068200
     21 H2         -13.7840   -33.9240    94.7310 h1         1 A1I       0.068200
     22 H3         -12.8730   -31.0520    94.2680 h1         1 A1I       0.038700
     23 H4         -12.1370   -32.9630    96.5130 h1         1 A1I       0.056700
     24 H5         -13.7620   -30.3920    96.5110 h1         1 A1I       0.058700
     25 H6         -15.9480   -31.5100    98.3470 h1         1 A1I       0.033200
     26 H7         -16.9630   -32.1730    97.0690 h1         1 A1I       0.033200
     27 H8         -13.7670   -34.0910    97.0050 hc         1 A1I       0.052200
     28 H9         -14.6900   -33.5340    98.3650 hc         1 A1I       0.052200
     29 H10        -16.7880   -34.3220    97.2950 hc         1 A1I       0.054200
     30 H11        -15.9220   -34.6820    95.8160 hc         1 A1I       0.054200
     31 H12        -14.6720   -36.7070    95.5740 ha         1 A1I       0.109500
     32 H13        -14.0550   -38.9290    96.4420 ha         1 A1I       0.111000
     33 H14        -10.8340   -32.2150    94.1200 ho         1 A1I       0.521000
     34 H15        -15.3710   -31.4690    94.8290 hn         1 A1I       0.432000
     35 H17        -11.0130   -31.0760    97.1960 ho         1 A1I       0.463000
     36 H18        -13.7340   -30.6680    98.6950 ho         1 A1I       0.511000
     37 H19        -17.0700   -29.9090    97.0050 ho         1 A1I       0.451000
     38 H20        -16.2260   -35.6320    99.4090 ha         1 A1I       0.109500
     39 H21        -15.6070   -37.8500   100.2840 ha         1 A1I       0.111000
     40 H22        -14.5160   -39.5110    98.8050 ha         1 A1I       0.111000
@<TRIPOS>BOND
     1     1     2 1   
     2     1    13 1   
     3     1    20 1   
     4     1    21 1   
     5     2     3 1   
     6     2    12 1   
     7     2    22 1   
     8     3     4 1   
     9     3    14 1   
    10     3    23 1   
    11     4     5 1   
    12     4    15 1   
    13     4    24 1   
    14     5     6 1   
    15     5     7 1   
    16     5    13 1   
    17     6    16 1   
    18     6    25 1   
    19     6    26 1   
    20     7     8 1   
    21     7    27 1   
    22     7    28 1   
    23     8     9 1   
    24     8    29 1   
    25     8    30 1   
    26     9    10 ar  
    27     9    17 ar  
    28    10    11 ar  
    29    10    31 1   
    30    11    19 ar  
    31    11    32 1   
    32    12    33 1   
    33    13    34 1   
    34    14    35 1   
    35    15    36 1   
    36    16    37 1   
    37    17    18 ar  
    38    17    38 1   
    39    18    19 ar  
    40    18    39 1   
    41    19    40 1   
@<TRIPOS>SUBSTRUCTURE
     1 A1I         1 TEMP              0 ****  ****    0 ROOT
