@<TRIPOS>MOLECULE
A1I
   87    90     1     0     0
SMALL
abcg2


@<TRIPOS>ATOM
      1 N1           4.1390   -30.9280    61.0010 ne         1 A1I      -0.776100
      2 C4           0.4510   -30.5690    58.1480 c3         1 A1I      -0.074400
      3 C5           0.6460   -31.9720    58.7160 c3         1 A1I      -0.104400
      4 C6           0.8300   -32.0050    60.2240 c3         1 A1I       0.172600
      5 C7           3.1890   -31.8120    60.5890 c          1 A1I       0.741500
      6 C8           5.4250   -31.2410    60.9410 cf         1 A1I       0.799800
      7 C10          6.0170   -28.8840    61.5060 ca         1 A1I      -0.015500
      8 C13         10.4960   -27.4920    62.9360 c3         1 A1I       0.205500
      9 C15         12.2570   -24.6370    64.2490 ca         1 A1I       0.055400
     10 C17         11.6100   -24.3060    66.5940 ca         1 A1I      -0.124000
     11 C20         13.1150   -23.5450    64.2960 ca         1 A1I       0.021000
     12 C21         14.1610   -21.6820    65.5230 c          1 A1I       0.624700
     13 C22         14.8840   -19.5420    66.4520 c3         1 A1I       0.113000
     14 C24         16.8840   -20.8690    67.3260 c          1 A1I       0.611100
     15 C26         15.9580   -22.3380    70.1170 c3         1 A1I      -0.122100
     16 C28         10.3380   -19.9900    65.9780 ca         1 A1I       0.360900
     17 C1           1.2400   -28.2590    56.1290 c3         1 A1I      -0.090100
     18 C11          6.9070   -27.9230    61.9300 ca         1 A1I      -0.204000
     19 C12          8.2260   -28.2660    62.2920 ca         1 A1I       0.350000
     20 C14         11.0950   -26.3620    63.7030 cc         1 A1I       0.389800
     21 C16         11.5150   -25.0050    65.3930 ca         1 A1I      -0.059200
     22 C18         12.4560   -23.2110    66.6170 ca         1 A1I      -0.066000
     23 C19         13.1980   -22.8210    65.4830 ca         1 A1I      -0.154600
     24 C2           0.0260   -29.1820    56.0260 c3         1 A1I      -0.073400
     25 C23         15.8610   -19.7890    67.6130 c3         1 A1I      -0.203400
     26 C25         15.6100   -22.4990    68.6540 c3         1 A1I       0.174600
     27 C27         12.5160   -20.2270    66.6280 ca         1 A1I       0.466900
     28 C29          9.9460   -19.5700    67.2410 ca         1 A1I      -0.175000
     29 C3           0.2450   -30.5700    56.6340 c3         1 A1I      -0.074400
     30 C30         10.9180   -19.4690    68.2300 ca         1 A1I      -0.059000
     31 C31         12.2270   -19.8080    67.9250 ca         1 A1I      -0.179000
     32 C33          8.6080   -29.6160    62.1960 ca         1 A1I      -0.204000
     33 C34          7.7030   -30.5700    61.7630 ca         1 A1I      -0.015500
     34 C9           6.3930   -30.2330    61.4060 ca         1 A1I      -0.228900
     35 N2           5.8980   -32.4040    60.4860 nv         1 A1I      -1.065200
     36 N4          11.9660   -25.5080    63.2100 nd         1 A1I      -0.552100
     37 N5          13.8500   -20.5720    66.2750 n          1 A1I      -0.428300
     38 N6          11.6000   -20.2980    65.6660 nb         1 A1I      -0.679000
     39 N7          10.7860   -26.1110    65.0190 na         1 A1I      -0.175600
     40 O1           1.9700   -31.2290    60.6540 os         1 A1I      -0.420100
     41 O2           3.3220   -32.9810    60.2200 o          1 A1I      -0.599000
     42 O3          15.2420   -21.7560    64.9440 o          1 A1I      -0.560100
     43 O4          17.8730   -20.6400    66.6620 o          1 A1I      -0.433000
     44 O5          16.7250   -22.1070    67.8100 os         1 A1I      -0.446100
     45 H18          8.7850   -26.3400    62.5670 hn         1 A1I       0.489000
     46 H9           1.3180   -29.9560    58.4050 hc         1 A1I       0.045200
     47 H8          -0.4150   -30.0990    58.6300 hc         1 A1I       0.045200
     48 H10         -0.2290   -32.5900    58.4850 hc         1 A1I       0.050700
     49 H11          1.5040   -32.4520    58.2390 hc         1 A1I       0.050700
     50 H12         -0.0150   -31.5340    60.7260 h1         1 A1I       0.059200
     51 H13          0.9360   -33.0270    60.5850 h1         1 A1I       0.059200
     52 H16          5.0110   -28.6010    61.2330 ha         1 A1I       0.126500
     53 H19         10.6560   -28.4210    63.4860 h1         1 A1I       0.068200
     54 H20         11.0330   -27.5750    61.9860 h1         1 A1I       0.068200
     55 H21         11.0540   -24.6000    67.4740 ha         1 A1I       0.120000
     56 H23         13.7000   -23.2540    63.4340 ha         1 A1I       0.151000
     57 H24         15.4390   -19.4500    65.5200 h1         1 A1I       0.072200
     58 H25         14.3720   -18.6010    66.6360 h1         1 A1I       0.072200
     59 H30         15.1320   -22.7090    70.7280 hc         1 A1I       0.047033
     60 H31         16.8540   -22.9090    70.3650 hc         1 A1I       0.047033
     61 H32         16.1300   -21.2910    70.3710 hc         1 A1I       0.047033
     62 H33          9.6140   -20.0730    65.1750 h4         1 A1I       0.027100
     63 H2           1.0480   -27.3030    55.6360 hc         1 A1I       0.031700
     64 H3           1.5010   -28.0480    57.1670 hc         1 A1I       0.031700
     65 H1           2.1130   -28.7130    55.6520 hc         1 A1I       0.031700
     66 H17          6.5990   -26.8860    61.9920 ha         1 A1I       0.117500
     67 H22         12.5530   -22.6540    67.5370 ha         1 A1I       0.113000
     68 H4          -0.8350   -28.7090    56.5120 hc         1 A1I       0.035200
     69 H5          -0.2430   -29.2990    54.9720 hc         1 A1I       0.035200
     70 H26         16.4370   -18.8730    67.7400 hc         1 A1I       0.068700
     71 H27         15.3150   -19.9640    68.5370 hc         1 A1I       0.068700
     72 H28         14.7220   -21.9360    68.3830 h1         1 A1I       0.055700
     73 H29         15.4380   -23.5420    68.3980 h1         1 A1I       0.055700
     74 H34          8.9120   -19.3260    67.4400 ha         1 A1I       0.129000
     75 H7          -0.6160   -31.2040    56.3970 hc         1 A1I       0.035200
     76 H6           1.1130   -31.0380    56.1540 hc         1 A1I       0.035200
     77 H35         10.6600   -19.1460    69.2300 ha         1 A1I       0.123000
     78 H36         13.0020   -19.7730    68.6770 ha         1 A1I       0.127000
     79 H38          9.6530   -27.8100    65.4530 h1         1 A1I       0.056033
     80 H39         10.2660   -26.9310    66.8620 h1         1 A1I       0.056033
     81 H37          8.9000   -26.2770    65.9310 h1         1 A1I       0.056033
     82 H40          9.6070   -29.9260    62.4620 ha         1 A1I       0.117500
     83 H41          8.0350   -31.5990    61.7330 ha         1 A1I       0.126500
     84 H15          6.8830   -32.5570    60.3550 hn         1 A1I       0.514000
     85 H14          5.2300   -33.1060    60.1960 hn         1 A1I       0.514000
     86 N3           9.0700   -27.2900    62.7510 nu         1 A1I      -0.972200
     87 C32          9.8420   -26.8230    65.8650 c3         1 A1I       0.068900
@<TRIPOS>BOND
     1     1     5 1   
     2     1     6 2   
     3     2     3 1   
     4     2    29 1   
     5     2    46 1   
     6     2    47 1   
     7     3     4 1   
     8     3    48 1   
     9     3    49 1   
    10     4    40 1   
    11     4    50 1   
    12     4    51 1   
    13     5    40 1   
    14     5    41 2   
    15     6    34 1   
    16     6    35 1   
    17     7    18 ar  
    18     7    34 ar  
    19     7    52 1   
    20     8    20 1   
    21     8    53 1   
    22     8    54 1   
    23     8    86 1   
    24     9    11 ar  
    25     9    21 ar  
    26     9    36 1   
    27    10    21 ar  
    28    10    22 ar  
    29    10    55 1   
    30    11    23 ar  
    31    11    56 1   
    32    12    23 1   
    33    12    37 1   
    34    12    42 2   
    35    13    25 1   
    36    13    37 1   
    37    13    57 1   
    38    13    58 1   
    39    14    25 1   
    40    14    43 2   
    41    14    44 1   
    42    15    26 1   
    43    15    59 1   
    44    15    60 1   
    45    15    61 1   
    46    16    28 ar  
    47    16    38 ar  
    48    16    62 1   
    49    17    24 1   
    50    17    63 1   
    51    17    64 1   
    52    17    65 1   
    53    18    19 ar  
    54    18    66 1   
    55    19    32 ar  
    56    19    86 1   
    57    20    36 2   
    58    20    39 1   
    59    21    39 1   
    60    22    23 ar  
    61    22    67 1   
    62    24    29 1   
    63    24    68 1   
    64    24    69 1   
    65    25    70 1   
    66    25    71 1   
    67    26    44 1   
    68    26    72 1   
    69    26    73 1   
    70    27    31 ar  
    71    27    37 1   
    72    27    38 ar  
    73    28    30 ar  
    74    28    74 1   
    75    29    75 1   
    76    29    76 1   
    77    30    31 ar  
    78    30    77 1   
    79    31    78 1   
    80    32    33 ar  
    81    32    82 1   
    82    33    34 ar  
    83    33    83 1   
    84    35    84 1   
    85    35    85 1   
    86    39    87 1   
    87    45    86 1   
    88    79    87 1   
    89    80    87 1   
    90    81    87 1   
@<TRIPOS>SUBSTRUCTURE
     1 A1I         1 TEMP              0 ****  ****    0 ROOT
