@<TRIPOS>MOLECULE
A1I
   50    52     1     0     0
SMALL
abcg2


@<TRIPOS>ATOM
      1 C1          18.2230    35.4330    -5.9420 cp         1 A1I       0.289500
      2 C2          18.7370    34.2020    -5.2950 cp         1 A1I      -0.140500
      3 C3          19.4070    33.2210    -6.0310 ca         1 A1I      -0.011300
      4 C12         17.2210    37.5530    -7.2360 ca         1 A1I       0.566900
      5 C13         18.2600    37.7810    -6.3020 ca         1 A1I      -0.193000
      6 C14         18.7610    36.7000    -5.6460 ca         1 A1I      -0.053000
      7 C16         15.5940    38.4820    -8.8620 c6         1 A1I       0.237500
      8 C17         14.2510    38.5360    -8.1290 c6         1 A1I       0.153800
      9 C19         13.1650    39.5640   -10.0060 c6         1 A1I       0.171800
     10 C20         14.4560    39.5620   -10.8110 c6         1 A1I      -0.072400
     11 C21         15.6690    39.6030    -9.8900 c6         1 A1I      -0.087400
     12 C23         11.3420    39.3060    -7.5120 c3         1 A1I      -0.130100
     13 C4          19.8720    32.0780    -5.3850 ca         1 A1I      -0.106000
     14 C5          19.6770    31.9130    -4.0230 ca         1 A1I      -0.144300
     15 C6          19.0140    32.8800    -3.2830 ca         1 A1I      -0.172000
     16 C7          18.5480    34.0240    -3.9200 ca         1 A1I       0.153100
     17 O8          17.8960    34.9960    -3.2600 oh         1 A1I      -0.527100
     18 C9          19.6490    33.3890    -7.5030 c3         1 A1I      -0.054800
     19 N10         17.2530    35.2940    -6.8170 nb         1 A1I      -0.269000
     20 N11         16.7460    36.3290    -7.4540 nb         1 A1I      -0.406000
     21 N15         16.7070    38.5810    -7.9440 nu         1 A1I      -0.933100
     22 N18         13.1550    38.4560    -9.0710 n3         1 A1I      -0.729600
     23 H1          18.6370    38.7810    -6.1280 ha         1 A1I       0.126000
     24 H2          19.5620    36.8050    -4.9260 ha         1 A1I       0.131000
     25 H3          15.6610    37.5230    -9.3800 h1         1 A1I       0.097700
     26 H4          14.2290    39.4600    -7.5240 h1         1 A1I       0.037700
     27 H5          14.1810    37.6950    -7.4330 h1         1 A1I       0.037700
     28 H6          13.0610    40.5400    -9.5010 h1         1 A1I       0.030700
     29 H7          12.3060    39.4620   -10.6750 h1         1 A1I       0.030700
     30 H8          14.4690    40.4190   -11.4860 hc         1 A1I       0.050700
     31 H9          14.4930    38.6620   -11.4300 hc         1 A1I       0.050700
     32 H10         16.5950    39.5270   -10.4650 hc         1 A1I       0.041200
     33 H11         15.6940    40.5670    -9.3680 hc         1 A1I       0.041200
     34 H12         11.1370    38.0560    -9.2480 h1         1 A1I       0.052700
     35 H13         11.9300    37.2760    -7.8980 h1         1 A1I       0.052700
     36 H14         10.3640    39.0200    -7.1220 hc         1 A1I       0.035367
     37 H15         12.0020    39.4630    -6.6570 hc         1 A1I       0.035367
     38 H16         11.2230    40.2630    -8.0230 hc         1 A1I       0.035367
     39 H17         20.3980    31.3300    -5.9650 ha         1 A1I       0.133000
     40 H18         18.8540    32.7600    -2.2170 ha         1 A1I       0.129000
     41 H19         17.8240    34.7870    -2.3210 ho         1 A1I       0.469000
     42 H20         18.7220    33.3100    -8.0710 hc         1 A1I       0.053700
     43 H21         20.0780    34.3660    -7.7290 hc         1 A1I       0.053700
     44 H22         20.3340    32.6270    -7.8720 hc         1 A1I       0.053700
     45 H23         17.0020    39.5080    -7.6820 hn         1 A1I       0.484000
     46 C24         20.1300    30.6590    -3.3370 c3         1 A1I       0.354300
     47 C22         11.8660    38.2190    -8.4490 c3         1 A1I       0.176800
     48 F25         20.5570    30.8900    -2.0880 f          1 A1I      -0.113333
     49 F26         19.1340    29.7650    -3.2380 f          1 A1I      -0.113333
     50 F27         21.1300    30.0520    -3.9840 f          1 A1I      -0.113333
@<TRIPOS>BOND
     1     1     2 1   
     2     1     6 ar  
     3     1    19 ar  
     4     2     3 ar  
     5     2    16 ar  
     6     3    13 ar  
     7     3    18 1   
     8     4     5 ar  
     9     4    20 ar  
    10     4    21 1   
    11     5     6 ar  
    12     5    23 1   
    13     6    24 1   
    14     7     8 1   
    15     7    11 1   
    16     7    21 1   
    17     7    25 1   
    18     8    22 1   
    19     8    26 1   
    20     8    27 1   
    21     9    10 1   
    22     9    22 1   
    23     9    28 1   
    24     9    29 1   
    25    10    11 1   
    26    10    30 1   
    27    10    31 1   
    28    11    32 1   
    29    11    33 1   
    30    12    36 1   
    31    12    37 1   
    32    12    38 1   
    33    12    47 1   
    34    13    14 ar  
    35    13    39 1   
    36    14    15 ar  
    37    14    46 1   
    38    15    16 ar  
    39    15    40 1   
    40    16    17 1   
    41    17    41 1   
    42    18    42 1   
    43    18    43 1   
    44    18    44 1   
    45    19    20 ar  
    46    21    45 1   
    47    22    47 1   
    48    34    47 1   
    49    35    47 1   
    50    46    48 1   
    51    46    49 1   
    52    46    50 1   
@<TRIPOS>SUBSTRUCTURE
     1 A1I         1 TEMP              0 ****  ****    0 ROOT
