@<TRIPOS>MOLECULE
A1I
   31    31     1     0     0
SMALL
abcg2


@<TRIPOS>ATOM
      1 C2         -12.5250   -31.8600    94.7050 c6         1 A1I       0.143300
      2 C4         -13.7450   -31.3380    96.8200 c6         1 A1I       0.107300
      3 C3         -12.4270   -31.8210    96.2210 c6         1 A1I       0.134300
      4 C5         -14.9540   -32.1910    96.3500 c6         1 A1I       0.176200
      5 O14        -15.2710   -35.3370    95.3850 oh         1 A1I      -0.656000
      6 N5         -14.9630   -32.2890    94.8950 n7         1 A1I      -0.850400
      7 C1         -13.7140   -32.7220    94.3040 c6         1 A1I       0.155800
      8 O2         -11.3700   -32.4020    94.1070 oh         1 A1I      -0.713000
      9 O3         -11.3670   -30.9560    96.5670 oh         1 A1I      -0.672000
     10 O4         -13.5760   -31.3310    98.2250 oh         1 A1I      -0.729000
     11 H1         -12.7020   -30.8310    94.3490 h1         1 A1I       0.034700
     12 H2         -13.9010   -30.3130    96.4540 h1         1 A1I       0.058700
     13 H3         -12.2150   -32.8420    96.5760 h1         1 A1I       0.058700
     14 H4         -16.8220   -34.1700    96.1310 h1         1 A1I       0.013700
     15 H5         -16.1360   -35.3240    97.2620 h1         1 A1I       0.013700
     16 H10        -15.9080   -35.9730    95.0460 ho         1 A1I       0.440000
     17 H11        -17.2270   -29.8840    96.3380 ho         1 A1I       0.451000
     18 H12        -15.2240   -31.3910    94.5050 hn         1 A1I       0.425000
     19 H14        -13.8270   -32.7100    93.2170 h1         1 A1I       0.077200
     20 H15        -13.5220   -33.7590    94.5880 h1         1 A1I       0.077200
     21 H16        -10.6180   -31.8540    94.3490 ho         1 A1I       0.518000
     22 H17        -11.3260   -30.9100    97.5280 ho         1 A1I       0.461000
     23 H18        -14.1610   -30.6720    98.6070 ho         1 A1I       0.509000
     24 C7         -14.9270   -33.5870    97.0090 c3         1 A1I      -0.067400
     25 C6         -16.2590   -31.5090    96.7740 c3         1 A1I       0.153600
     26 O6         -16.3400   -30.2270    96.1940 oh         1 A1I      -0.674000
     27 C8         -15.8800   -34.6340    96.4480 c3         1 A1I       0.178600
     28 H6         -13.9200   -34.0130    96.9920 hc         1 A1I       0.058200
     29 H7         -15.1570   -33.4540    98.0680 hc         1 A1I       0.058200
     30 H8         -16.2970   -31.4570    97.8700 h1         1 A1I       0.029200
     31 H9         -17.1010   -32.1360    96.4580 h1         1 A1I       0.029200
@<TRIPOS>BOND
     1     1     3 1   
     2     1     7 1   
     3     1     8 1   
     4     1    11 1   
     5     2     3 1   
     6     2     4 1   
     7     2    10 1   
     8     2    12 1   
     9     3     9 1   
    10     3    13 1   
    11     4     6 1   
    12     4    24 1   
    13     4    25 1   
    14     5    16 1   
    15     5    27 1   
    16     6     7 1   
    17     6    18 1   
    18     7    19 1   
    19     7    20 1   
    20     8    21 1   
    21     9    22 1   
    22    10    23 1   
    23    14    27 1   
    24    15    27 1   
    25    17    26 1   
    26    24    27 1   
    27    24    28 1   
    28    24    29 1   
    29    25    26 1   
    30    25    30 1   
    31    25    31 1   
@<TRIPOS>SUBSTRUCTURE
     1 A1I         1 TEMP              0 ****  ****    0 ROOT
