@<TRIPOS>MOLECULE
A1I
   57    61     1     0     0
SMALL
abcg2


@<TRIPOS>ATOM
      1 C6         -11.3430    -6.6730    38.3660 cc         1 A1I       0.479500
      2 C7          -9.9150    -4.0080    36.7380 c          1 A1I       0.650700
      3 C8          -9.3430    -4.7020    35.5380 ca         1 A1I      -0.059600
      4 C10         -9.6650    -5.4810    33.2700 ca         1 A1I      -0.076000
      5 C12         -7.4850    -5.5860    34.2810 ca         1 A1I      -0.067000
      6 C15        -11.2350    -4.4640    38.7880 ca         1 A1I      -0.070000
      7 C4         -12.5660    -8.6410    37.5250 ca         1 A1I      -0.112000
      8 C3         -12.9310    -9.9730    37.5890 ca         1 A1I      -0.085000
      9 C2         -12.3940   -10.8030    38.5700 ca         1 A1I      -0.118600
     10 C1         -12.8050   -12.2720    38.6770 c          1 A1I       0.712600
     11 C24         -7.4840   -11.1420    40.7620 ca         1 A1I      -0.182500
     12 C26         -7.9070   -12.5850    42.6500 ca         1 A1I      -0.168000
     13 C28         -9.2970   -10.6430    42.2570 ca         1 A1I      -0.182500
     14 C20        -11.7230    -5.6600    39.3130 ca         1 A1I      -0.208900
     15 C21        -11.0840    -8.9310    39.4130 ca         1 A1I      -0.133300
     16 C11         -8.3220    -5.8040    33.1970 ca         1 A1I      -0.096000
     17 C13         -7.9910    -5.0350    35.4490 ca         1 A1I      -0.151300
     18 C14         -7.0730    -4.7790    36.6110 c3         1 A1I       0.356300
     19 C16        -11.4190    -3.2480    39.4400 ca         1 A1I      -0.101000
     20 C17        -12.1110    -3.2800    40.6350 ca         1 A1I      -0.081000
     21 C18        -12.6030    -4.4840    41.1590 ca         1 A1I       0.082000
     22 C19        -12.4220    -5.6890    40.5160 ca         1 A1I      -0.019000
     23 C23         -8.5560   -10.3050    41.1160 ca         1 A1I       0.336000
     24 C25         -7.1690   -12.2570    41.5180 ca         1 A1I      -0.064500
     25 C27         -8.9700   -11.7650    43.0050 ca         1 A1I      -0.064500
     26 C29        -11.4720   -10.2670    39.4590 ca         1 A1I      -0.083000
     27 C5         -11.6550    -8.1090    38.4380 ca         1 A1I      -0.155900
     28 C9         -10.1610    -4.9330    34.4420 ca         1 A1I       0.148000
     29 F1          -7.6380    -5.1240    37.7770 f          1 A1I      -0.107000
     30 F2          -5.9350    -5.4630    36.5130 f          1 A1I      -0.107000
     31 F3          -6.7500    -3.4840    36.7070 f          1 A1I      -0.107000
     32 N1         -10.7010    -6.1480    37.3700 nd         1 A1I      -0.457300
     33 N2         -10.6180    -4.8130    37.6020 n          1 A1I       0.052600
     34 N3          -8.8040    -9.1840    40.3600 nu         1 A1I      -0.960200
     35 O1         -13.6280   -12.6780    37.8370 o          1 A1I      -0.710000
     36 O2         -12.2790   -12.9240    39.5990 o          1 A1I      -0.710000
     37 O3          -9.7780    -2.8270    36.9280 o          1 A1I      -0.530100
     38 CL1        -11.8380    -4.5330    34.5460 cl         1 A1I      -0.170000
     39 CL2        -13.4660    -4.4390    42.6590 cl         1 A1I      -0.209000
     40 H3         -10.3220    -5.6520    32.4280 ha         1 A1I       0.136000
     41 H5          -6.4410    -5.8520    34.2010 ha         1 A1I       0.134000
     42 H2         -12.9960    -7.9950    36.7690 ha         1 A1I       0.097000
     43 H1         -13.6430   -10.3720    36.8790 ha         1 A1I       0.134000
     44 H10         -9.7670    -7.3890    40.1350 h1         1 A1I       0.047700
     45 H9         -10.4270    -8.3880    41.3890 h1         1 A1I       0.047700
     46 H16        -10.1390   -10.0400    42.5710 ha         1 A1I       0.106500
     47 H4          -7.9240    -6.2330    32.2880 ha         1 A1I       0.124000
     48 H6         -11.0520    -2.3120    39.0510 ha         1 A1I       0.143000
     49 H7         -12.2770    -2.3580    41.1750 ha         1 A1I       0.124000
     50 H8         -12.8060    -6.6160    40.9220 ha         1 A1I       0.153000
     51 H13         -6.3380   -12.8800    41.2120 ha         1 A1I       0.098500
     52 H15         -9.5640   -11.9990    43.8790 ha         1 A1I       0.098500
     53 H17        -11.0460   -10.9220    40.2080 ha         1 A1I       0.144000
     54 H11         -8.3040    -9.1460    39.4860 hn         1 A1I       0.469000
     55 H12         -6.8980   -10.9070    39.8810 ha         1 A1I       0.106500
     56 C22        -10.0270    -8.4210    40.3740 c3         1 A1I       0.268100
     57 H14         -7.6620   -13.4600    43.2370 ha         1 A1I       0.102000
@<TRIPOS>BOND
     1     1    14 1   
     2     1    27 1   
     3     1    32 2   
     4     2     3 1   
     5     2    33 1   
     6     2    37 2   
     7     3    17 ar  
     8     3    28 ar  
     9     4    16 ar  
    10     4    28 ar  
    11     4    40 1   
    12     5    16 ar  
    13     5    17 ar  
    14     5    41 1   
    15     6    14 ar  
    16     6    19 ar  
    17     6    33 1   
    18     7     8 ar  
    19     7    27 ar  
    20     7    42 1   
    21     8     9 ar  
    22     8    43 1   
    23     9    10 1   
    24     9    26 ar  
    25    10    35 1   
    26    10    36 1   
    27    11    23 ar  
    28    11    24 ar  
    29    11    55 1   
    30    12    24 ar  
    31    12    25 ar  
    32    12    57 1   
    33    13    23 ar  
    34    13    25 ar  
    35    13    46 1   
    36    14    22 ar  
    37    15    26 ar  
    38    15    27 ar  
    39    15    56 1   
    40    16    47 1   
    41    17    18 1   
    42    18    29 1   
    43    18    30 1   
    44    18    31 1   
    45    19    20 ar  
    46    19    48 1   
    47    20    21 ar  
    48    20    49 1   
    49    21    22 ar  
    50    21    39 1   
    51    22    50 1   
    52    23    34 1   
    53    24    51 1   
    54    25    52 1   
    55    26    53 1   
    56    28    38 1   
    57    32    33 1   
    58    34    54 1   
    59    34    56 1   
    60    44    56 1   
    61    45    56 1   
@<TRIPOS>SUBSTRUCTURE
     1 A1I         1 TEMP              0 ****  ****    0 ROOT
