@<TRIPOS>MOLECULE
A1I
   56    60     1     0     0
SMALL
abcg2


@<TRIPOS>ATOM
      1 C1          34.7580   -12.9140    38.6860 c          1 A1I       0.712600
      2 C2          35.0870   -11.4190    38.7210 ca         1 A1I      -0.083600
      3 C3          34.5020   -10.5340    37.8230 ca         1 A1I      -0.125000
      4 C5          35.7020    -8.6860    38.8210 ca         1 A1I      -0.195900
      5 C6          36.0050    -7.2520    38.8490 cc         1 A1I       0.498500
      6 C8          36.8040    -4.9890    35.6840 ca         1 A1I      -0.054600
      7 C9          35.5220    -4.9340    35.1520 ca         1 A1I       0.146000
      8 C13         37.8540    -5.3850    34.8530 ca         1 A1I      -0.146300
      9 C14         39.2640    -5.4420    35.3720 c3         1 A1I       0.357300
     10 C16         36.1120    -3.9300    40.2000 ca         1 A1I       0.105000
     11 C17         35.7970    -4.0960    41.5360 ca         1 A1I      -0.082000
     12 C19         35.5840    -6.4870    41.2950 ca         1 A1I      -0.011000
     13 C20         35.9340    -6.3360    39.9560 ca         1 A1I      -0.187900
     14 C22         37.6860    -9.8560    41.6430 c3         1 A1I       0.207900
     15 C23         38.4380    -8.9540    42.5740 ca         1 A1I      -0.080300
     16 C26         39.8090    -7.2140    44.2700 ca         1 A1I      -0.109000
     17 C27         38.4580    -7.4660    44.4750 ca         1 A1I      -0.119000
     18 C28         37.7780    -8.3320    43.6310 ca         1 A1I      -0.086000
     19 C29         35.9890   -10.9320    39.6630 ca         1 A1I      -0.177000
     20 C10         35.2700    -5.2590    33.8290 ca         1 A1I      -0.081000
     21 C11         36.3210    -5.6550    33.0220 ca         1 A1I      -0.098000
     22 C12         37.6090    -5.7220    33.5300 ca         1 A1I      -0.070000
     23 C15         36.2300    -5.0790    39.4100 ca         1 A1I      -0.058000
     24 C18         35.5450    -5.3580    42.0820 ca         1 A1I      -0.147000
     25 C21         36.3010    -9.5790    39.7200 ca         1 A1I       0.129100
     26 C24         39.7900    -8.6960    42.3750 ca         1 A1I      -0.086000
     27 C25         40.4740    -7.8310    43.2190 ca         1 A1I      -0.119000
     28 C4          34.8140    -9.1850    37.8730 ca         1 A1I      -0.075000
     29 F1          39.8300    -4.2310    35.3950 f          1 A1I      -0.106333
     30 F2          39.3170    -5.9280    36.6190 f          1 A1I      -0.106333
     31 F3          40.0440    -6.2210    34.6190 f          1 A1I      -0.106333
     32 N1          36.3130    -6.6220    37.7580 nd         1 A1I      -0.474300
     33 N2          36.4810    -5.3120    38.0690 n          1 A1I       0.049600
     34 O1          33.9260   -13.2740    37.8340 o          1 A1I      -0.712500
     35 O2          35.3550   -13.6310    39.5110 o          1 A1I      -0.712500
     36 O3          37.6320    -3.4940    37.3270 o          1 A1I      -0.505100
     37 O4          37.1840    -9.0460    40.5860 os         1 A1I      -0.360100
     38 CL1         34.2000    -4.4230    36.1430 cl         1 A1I      -0.173000
     39 CL2         36.2190    -2.3250    39.5860 cl         1 A1I      -0.185000
     40 H1          33.7980   -10.8990    37.0880 ha         1 A1I       0.135000
     41 H6          35.7110    -3.2200    42.1640 ha         1 A1I       0.118000
     42 H8          35.3330    -7.4560    41.7010 ha         1 A1I       0.137000
     43 H10         36.8600   -10.3440    42.1710 h1         1 A1I       0.048200
     44 H9          38.3400   -10.6370    41.2430 h1         1 A1I       0.048200
     45 H13         40.3420    -6.5420    44.9290 ha         1 A1I       0.103000
     46 H14         37.9350    -6.9900    45.2950 ha         1 A1I       0.106000
     47 H15         36.7250    -8.5300    43.7950 ha         1 A1I       0.115500
     48 H16         36.4490   -11.6370    40.3420 ha         1 A1I       0.139000
     49 H3          34.2640    -5.2010    33.4380 ha         1 A1I       0.134000
     50 H4          36.1350    -5.9140    31.9890 ha         1 A1I       0.122000
     51 H5          38.4120    -6.0400    32.8810 ha         1 A1I       0.133000
     52 H7          35.2870    -5.4310    43.1290 ha         1 A1I       0.112000
     53 H11         40.3130    -9.1790    41.5580 ha         1 A1I       0.115500
     54 H12         41.5280    -7.6410    43.0570 ha         1 A1I       0.106000
     55 H2          34.3460    -8.4960    37.1810 ha         1 A1I       0.102000
     56 C7          37.0340    -4.5060    37.0860 c          1 A1I       0.653700
@<TRIPOS>BOND
     1     1     2 1   
     2     1    34 1   
     3     1    35 1   
     4     2     3 ar  
     5     2    19 ar  
     6     3    28 ar  
     7     3    40 1   
     8     4     5 1   
     9     4    25 ar  
    10     4    28 ar  
    11     5    13 1   
    12     5    32 2   
    13     6     7 ar  
    14     6     8 ar  
    15     6    56 1   
    16     7    20 ar  
    17     7    38 1   
    18     8     9 1   
    19     8    22 ar  
    20     9    29 1   
    21     9    30 1   
    22     9    31 1   
    23    10    11 ar  
    24    10    23 ar  
    25    10    39 1   
    26    11    24 ar  
    27    11    41 1   
    28    12    13 ar  
    29    12    24 ar  
    30    12    42 1   
    31    13    23 ar  
    32    14    15 1   
    33    14    37 1   
    34    14    43 1   
    35    14    44 1   
    36    15    18 ar  
    37    15    26 ar  
    38    16    17 ar  
    39    16    27 ar  
    40    16    45 1   
    41    17    18 ar  
    42    17    46 1   
    43    18    47 1   
    44    19    25 ar  
    45    19    48 1   
    46    20    21 ar  
    47    20    49 1   
    48    21    22 ar  
    49    21    50 1   
    50    22    51 1   
    51    23    33 1   
    52    24    52 1   
    53    25    37 1   
    54    26    27 ar  
    55    26    53 1   
    56    27    54 1   
    57    28    55 1   
    58    32    33 1   
    59    33    56 1   
    60    36    56 2   
@<TRIPOS>SUBSTRUCTURE
     1 A1I         1 TEMP              0 ****  ****    0 ROOT
