@<TRIPOS>MOLECULE
A1I
   56    60     1     0     0
SMALL
abcg2


@<TRIPOS>ATOM
      1 C4          15.3500    17.0530    14.2660 ca         1 A1I      -0.072000
      2 C14         19.3910    21.5960    16.8920 c3         1 A1I       0.357300
      3 C5          15.9950    17.9260    13.3960 ca         1 A1I      -0.196900
      4 C6          17.4170    18.2250    13.5780 cc         1 A1I       0.504500
      5 C11         17.9880    19.2700    19.5140 ca         1 A1I      -0.097000
      6 C8          19.2220    19.0920    17.0260 ca         1 A1I      -0.057600
      7 C9          18.8370    17.9510    17.7150 ca         1 A1I       0.150000
      8 C10         18.2220    18.0270    18.9540 ca         1 A1I      -0.078000
      9 C12         18.3600    20.4250    18.8420 ca         1 A1I      -0.069000
     10 C13         18.9750    20.3380    17.6020 ca         1 A1I      -0.152300
     11 N1          17.8880    18.5010    14.7560 nd         1 A1I      -0.476300
     12 N2          19.2290    18.6500    14.6370 n          1 A1I       0.056600
     13 C3          14.0070    16.7530    14.1080 ca         1 A1I      -0.124000
     14 C15         19.6440    18.4710    13.3310 ca         1 A1I      -0.073000
     15 C16         20.8970    18.5270    12.7270 ca         1 A1I      -0.104000
     16 C17         20.9470    18.2880    11.3680 ca         1 A1I      -0.081000
     17 C18         19.7840    17.9910    10.6450 ca         1 A1I       0.079000
     18 C19         18.5440    17.9300    11.2410 ca         1 A1I      -0.010000
     19 C2          13.2800    17.3260    13.0690 ca         1 A1I      -0.081600
     20 C20         18.4840    18.1890    12.6080 ca         1 A1I      -0.189900
     21 C21         15.2570    18.5240    12.3670 ca         1 A1I       0.129100
     22 C22         15.3170    19.9920    10.4750 c3         1 A1I       0.210900
     23 C23         16.3260    20.9420     9.9060 ca         1 A1I      -0.070300
     24 C24         16.4620    22.2190    10.4410 ca         1 A1I      -0.073000
     25 C25         17.4360    23.0810     9.9720 ca         1 A1I      -0.104000
     26 C26         18.2890    22.6740     8.9560 ca         1 A1I       0.120000
     27 C27         18.1550    21.4020     8.4090 ca         1 A1I       0.115000
     28 C28         17.1830    20.5390     8.8900 ca         1 A1I      -0.075000
     29 C29         13.9140    18.2120    12.2010 ca         1 A1I      -0.176000
     30 F1          18.6950    22.6570    17.2980 f          1 A1I      -0.107333
     31 F2          19.2170    21.4980    15.5680 f          1 A1I      -0.107333
     32 F3          20.6840    21.8700    17.0970 f          1 A1I      -0.107333
     33 O1          11.2230    17.5650    11.9290 o          1 A1I      -0.711000
     34 O2          11.3010    16.2050    13.6990 o          1 A1I      -0.711000
     35 O3          21.1810    19.0940    15.6850 o          1 A1I      -0.536100
     36 O4          15.9340    19.4110    11.6130 os         1 A1I      -0.364100
     37 CL1         19.1270    16.4010    17.0100 cl         1 A1I      -0.170000
     38 CL2         19.9180    17.7040     8.9430 cl         1 A1I      -0.214000
     39 CL3         19.5000    23.7540     8.3830 cl         1 A1I      -0.190000
     40 CL4         19.1900    20.8860     7.1330 cl         1 A1I      -0.183000
     41 H2          15.9200    16.5930    15.0630 ha         1 A1I       0.104000
     42 H4          17.5090    19.3400    20.4800 ha         1 A1I       0.123000
     43 H3          17.9290    17.1240    19.4720 ha         1 A1I       0.135000
     44 H5          18.1610    21.3860    19.2950 ha         1 A1I       0.132000
     45 H1          13.5240    16.0660    14.7880 ha         1 A1I       0.136000
     46 H6          21.8000    18.7480    13.2740 ha         1 A1I       0.142000
     47 H7          21.8990    18.3270    10.8570 ha         1 A1I       0.123000
     48 H8          17.6610    17.6890    10.6670 ha         1 A1I       0.147000
     49 H10         15.0460    19.2200     9.7470 h1         1 A1I       0.051200
     50 H9          14.4060    20.5270    10.7580 h1         1 A1I       0.051200
     51 H11         15.8000    22.5480    11.2330 ha         1 A1I       0.130000
     52 H12         17.5390    24.0720    10.3930 ha         1 A1I       0.128000
     53 H13         17.0960    19.5470     8.4670 ha         1 A1I       0.136000
     54 H14         13.3310    18.6570    11.4060 ha         1 A1I       0.139000
     55 C7          19.9860    18.9550    15.7410 c          1 A1I       0.651700
     56 C1          11.7960    17.0010    12.8810 c          1 A1I       0.711600
@<TRIPOS>BOND
     1     1     3 ar  
     2     1    13 ar  
     3     1    41 1   
     4     2    10 1   
     5     2    30 1   
     6     2    31 1   
     7     2    32 1   
     8     3     4 1   
     9     3    21 ar  
    10     4    11 2   
    11     4    20 1   
    12     5     8 ar  
    13     5     9 ar  
    14     5    42 1   
    15     6     7 ar  
    16     6    10 ar  
    17     6    55 1   
    18     7     8 ar  
    19     7    37 1   
    20     8    43 1   
    21     9    10 ar  
    22     9    44 1   
    23    11    12 1   
    24    12    14 1   
    25    12    55 1   
    26    13    19 ar  
    27    13    45 1   
    28    14    15 ar  
    29    14    20 ar  
    30    15    16 ar  
    31    15    46 1   
    32    16    17 ar  
    33    16    47 1   
    34    17    18 ar  
    35    17    38 1   
    36    18    20 ar  
    37    18    48 1   
    38    19    29 ar  
    39    19    56 1   
    40    21    29 ar  
    41    21    36 1   
    42    22    23 1   
    43    22    36 1   
    44    22    49 1   
    45    22    50 1   
    46    23    24 ar  
    47    23    28 ar  
    48    24    25 ar  
    49    24    51 1   
    50    25    26 ar  
    51    25    52 1   
    52    26    27 ar  
    53    26    39 1   
    54    27    28 ar  
    55    27    40 1   
    56    28    53 1   
    57    29    54 1   
    58    33    56 1   
    59    34    56 1   
    60    35    55 2   
@<TRIPOS>SUBSTRUCTURE
     1 A1I         1 TEMP              0 ****  ****    0 ROOT
