@<TRIPOS>MOLECULE
A1I
   56    60     1     0     0
SMALL
abcg2


@<TRIPOS>ATOM
      1 C4          13.6940    21.6430     9.1840 ca         1 A1I      -0.077000
      2 C14         15.9520    18.2450    14.6040 c3         1 A1I       0.356300
      3 C5          15.0360    21.8700     9.4750 ca         1 A1I      -0.197900
      4 C6          15.8850    20.7380     9.8610 cc         1 A1I       0.503500
      5 C11         12.3880    17.5160    13.6020 ca         1 A1I      -0.098000
      6 C8          14.8700    17.8080    12.3700 ca         1 A1I      -0.054600
      7 C9          13.7330    17.5040    11.6310 ca         1 A1I       0.150000
      8 C10         12.4940    17.3590    12.2320 ca         1 A1I      -0.078000
      9 C12         13.5080    17.8110    14.3630 ca         1 A1I      -0.072000
     10 C13         14.7470    17.9510    13.7530 ca         1 A1I      -0.151300
     11 N1          15.4950    19.9130    10.7850 nd         1 A1I      -0.478300
     12 N2          16.4220    18.9250    10.8670 n          1 A1I       0.053600
     13 C3          12.8520    22.6830     8.8270 ca         1 A1I      -0.124000
     14 C15         17.4480    19.1180     9.9580 ca         1 A1I      -0.074000
     15 C16         18.5870    18.3750     9.6560 ca         1 A1I      -0.114000
     16 C17         19.3810    18.8530     8.6310 ca         1 A1I      -0.090000
     17 C18         19.0600    20.0200     7.9230 ca         1 A1I      -0.155000
     18 C19         17.9330    20.7520     8.2390 ca         1 A1I      -0.021000
     19 C2          13.3410    23.9830     8.7660 ca         1 A1I      -0.085600
     20 C20         17.1260    20.2960     9.2790 ca         1 A1I      -0.195900
     21 C21         15.5310    23.1800     9.4200 ca         1 A1I       0.131100
     22 C22         17.3710    24.6360     9.9010 c3         1 A1I       0.213900
     23 C23         17.6620    25.3250     8.5920 ca         1 A1I      -0.116300
     24 C24         17.2370    26.6320     8.3760 ca         1 A1I      -0.085500
     25 C25         17.5330    27.2880     7.1880 ca         1 A1I      -0.114000
     26 C26         18.2530    26.6360     6.1970 ca         1 A1I      -0.110000
     27 C27         18.6830    25.3310     6.4050 ca         1 A1I      -0.114000
     28 C28         18.3930    24.6830     7.5960 ca         1 A1I      -0.085500
     29 C29         14.6790    24.2210     9.0690 ca         1 A1I      -0.170000
     30 F1          16.6720    17.1440    14.8470 f          1 A1I      -0.108333
     31 F2          15.6150    18.7540    15.7890 f          1 A1I      -0.108333
     32 F3          16.7710    19.1270    14.0150 f          1 A1I      -0.108333
     33 O1          11.2520    24.8560     8.1000 o          1 A1I      -0.714000
     34 O2          12.9540    26.2790     8.3480 o          1 A1I      -0.714000
     35 O3          17.0090    16.9530    11.8010 o          1 A1I      -0.540100
     36 O4          16.8280    23.3340     9.7570 os         1 A1I      -0.357100
     37 CL1         13.8590    17.2860     9.9210 cl         1 A1I      -0.170000
     38 H1          13.3160    20.6290     9.2290 ha         1 A1I       0.100000
     39 H2          11.4250    17.4070    14.0810 ha         1 A1I       0.122000
     40 H3          11.6240    17.1250    11.6330 ha         1 A1I       0.136000
     41 H4          13.4010    17.9290    15.4310 ha         1 A1I       0.132000
     42 H5          11.8160    22.4840     8.5930 ha         1 A1I       0.134000
     43 H6          18.8470    17.4700    10.1810 ha         1 A1I       0.137000
     44 H7          20.2740    18.3040     8.3620 ha         1 A1I       0.104000
     45 H8          19.7050    20.3470     7.1190 ha         1 A1I       0.108000
     46 H9          17.6740    21.6430     7.6850 ha         1 A1I       0.136000
     47 H10         18.3010    24.4850    10.4510 h1         1 A1I       0.054700
     48 H11         16.7240    25.2600    10.5270 h1         1 A1I       0.054700
     49 H12         16.6640    27.1430     9.1420 ha         1 A1I       0.117500
     50 H13         17.1920    28.3040     7.0350 ha         1 A1I       0.107000
     51 H14         18.4800    27.1420     5.2670 ha         1 A1I       0.102000
     52 H15         19.2500    24.8190     5.6380 ha         1 A1I       0.107000
     53 H16         18.7510    23.6720     7.7530 ha         1 A1I       0.117500
     54 H17         15.0280    25.2420     9.0240 ha         1 A1I       0.142000
     55 C7          16.2020    17.8400    11.6790 c          1 A1I       0.649700
     56 C1          12.4320    25.1480     8.3680 c          1 A1I       0.712600
@<TRIPOS>BOND
     1     1     3 ar  
     2     1    13 ar  
     3     1    38 1   
     4     2    10 1   
     5     2    30 1   
     6     2    31 1   
     7     2    32 1   
     8     3     4 1   
     9     3    21 ar  
    10     4    11 2   
    11     4    20 1   
    12     5     8 ar  
    13     5     9 ar  
    14     5    39 1   
    15     6     7 ar  
    16     6    10 ar  
    17     6    55 1   
    18     7     8 ar  
    19     7    37 1   
    20     8    40 1   
    21     9    10 ar  
    22     9    41 1   
    23    11    12 1   
    24    12    14 1   
    25    12    55 1   
    26    13    19 ar  
    27    13    42 1   
    28    14    15 ar  
    29    14    20 ar  
    30    15    16 ar  
    31    15    43 1   
    32    16    17 ar  
    33    16    44 1   
    34    17    18 ar  
    35    17    45 1   
    36    18    20 ar  
    37    18    46 1   
    38    19    29 ar  
    39    19    56 1   
    40    21    29 ar  
    41    21    36 1   
    42    22    23 1   
    43    22    36 1   
    44    22    47 1   
    45    22    48 1   
    46    23    24 ar  
    47    23    28 ar  
    48    24    25 ar  
    49    24    49 1   
    50    25    26 ar  
    51    25    50 1   
    52    26    27 ar  
    53    26    51 1   
    54    27    28 ar  
    55    27    52 1   
    56    28    53 1   
    57    29    54 1   
    58    33    56 1   
    59    34    56 1   
    60    35    55 2   
@<TRIPOS>SUBSTRUCTURE
     1 A1I         1 TEMP              0 ****  ****    0 ROOT
