@<TRIPOS>MOLECULE
A1I
   64    68     1     0     0
SMALL
abcg2


@<TRIPOS>ATOM
      1 C4          16.1730    21.4090    10.0390 ca         1 A1I      -0.005300
      2 C14         19.9910    19.2020    15.8420 c          1 A1I       0.653700
      3 C5          15.2510    20.3880    10.6460 c3         1 A1I       0.203900
      4 C6          15.1960    18.9270    12.5250 ca         1 A1I       0.134100
      5 C11         15.2340    17.5320    14.4850 ca         1 A1I      -0.074000
      6 C7          13.8410    18.6590    12.3780 ca         1 A1I      -0.176000
      7 C8          13.1740    17.8370    13.2830 ca         1 A1I      -0.081600
      8 C9          11.6780    17.5640    13.1100 c          1 A1I       0.711600
      9 C10         13.8790    17.2800    14.3440 ca         1 A1I      -0.124000
     10 C12         15.9100    18.3420    13.5790 ca         1 A1I      -0.200900
     11 C13         17.3500    18.5590    13.7400 cc         1 A1I       0.506500
     12 N1          17.8480    18.9410    14.8750 nd         1 A1I      -0.468300
     13 N2          19.1980    18.9410    14.7490 n          1 A1I       0.055600
     14 C3          17.5450    21.1960     9.9800 ca         1 A1I      -0.215500
     15 C1          20.3320    20.9310     9.8310 c3         1 A1I       0.148400
     16 C15         19.2530    19.4260    17.1300 ca         1 A1I      -0.058600
     17 C16         18.7100    18.3360    17.7990 ca         1 A1I       0.150000
     18 C17         18.1020    18.4740    19.0350 ca         1 A1I      -0.077000
     19 C18         18.0360    19.7280    19.6160 ca         1 A1I      -0.096000
     20 C19         18.5740    20.8300    18.9710 ca         1 A1I      -0.070000
     21 C2          18.3530    22.1620     9.3800 ca         1 A1I       0.167100
     22 C20         19.1850    20.6810    17.7340 ca         1 A1I      -0.150300
     23 C21         19.7900    21.8840    17.0660 c3         1 A1I       0.357300
     24 C22         19.5880    18.5440    13.4840 ca         1 A1I      -0.073000
     25 C23         20.8360    18.3620    12.8940 ca         1 A1I      -0.105000
     26 C24         20.8510    17.8930    11.5960 ca         1 A1I      -0.090000
     27 C25         19.6590    17.6150    10.9130 ca         1 A1I       0.070000
     28 C26         18.4230    17.8060    11.4890 ca         1 A1I      -0.013000
     29 C27         18.4020    18.2850    12.7960 ca         1 A1I      -0.193900
     30 C28         15.6020    22.5570     9.5040 ca         1 A1I      -0.215500
     31 C29         16.4180    23.5090     8.8930 ca         1 A1I       0.167100
     32 C30         14.5770    24.9240     8.4000 c3         1 A1I       0.148400
     33 C31         17.7930    23.3120     8.8350 ca         1 A1I      -0.193000
     34 F1          19.6400    21.8400    15.7350 f          1 A1I      -0.107000
     35 F2          21.1010    21.9760    17.3110 f          1 A1I      -0.107000
     36 F3          19.2340    23.0210    17.4830 f          1 A1I      -0.107000
     37 O1          19.6920    22.0660     9.2840 os         1 A1I      -0.348100
     38 O2          15.9020    19.7560    11.7300 os         1 A1I      -0.361100
     39 O3          11.1220    18.1200    12.1440 o          1 A1I      -0.711000
     40 O4          11.1560    16.8130    13.9540 o          1 A1I      -0.711000
     41 O5          21.1930    19.2210    15.7740 o          1 A1I      -0.535100
     42 O6          15.9630    24.6520     8.3480 os         1 A1I      -0.348100
     43 CL1         18.8010    16.7670    17.0820 cl         1 A1I      -0.170000
     44 CL2         19.7510    17.0300     9.2850 cl         1 A1I      -0.213000
     45 H5          14.3330    20.8840    10.9800 h1         1 A1I       0.051200
     46 H6          14.9640    19.6430     9.8950 h1         1 A1I       0.051200
     47 H9          15.7890    17.0830    15.2990 ha         1 A1I       0.101000
     48 H7          13.2700    19.0880    11.5660 ha         1 A1I       0.140000
     49 H8          13.3720    16.6420    15.0540 ha         1 A1I       0.136000
     50 H4          17.9690    20.2950    10.4000 ha         1 A1I       0.128500
     51 H3          21.3990    21.0730     9.6770 h1         1 A1I       0.040867
     52 H1          20.1440    20.8290    10.9030 h1         1 A1I       0.040867
     53 H2          20.0260    20.0110     9.3290 h1         1 A1I       0.040867
     54 H10         17.6840    17.6110    19.5350 ha         1 A1I       0.137000
     55 H11         17.5590    19.8470    20.5790 ha         1 A1I       0.124000
     56 H12         18.5090    21.8000    19.4440 ha         1 A1I       0.133000
     57 H13         21.7610    18.5670    13.4090 ha         1 A1I       0.143000
     58 H14         21.7990    17.7370    11.0990 ha         1 A1I       0.122000
     59 H15         17.5110    17.5850    10.9510 ha         1 A1I       0.153000
     60 H16         14.5310    22.6990     9.5780 ha         1 A1I       0.128500
     61 H19         14.4340    25.8870     7.9160 h1         1 A1I       0.040867
     62 H18         13.9910    24.1720     7.8650 h1         1 A1I       0.040867
     63 H17         14.2110    24.9900     9.4280 h1         1 A1I       0.040867
     64 H20         18.4280    24.0580     8.3730 ha         1 A1I       0.132000
@<TRIPOS>BOND
     1     1     3 1   
     2     1    14 ar  
     3     1    30 ar  
     4     2    13 1   
     5     2    16 1   
     6     2    41 2   
     7     3    38 1   
     8     3    45 1   
     9     3    46 1   
    10     4     6 ar  
    11     4    10 ar  
    12     4    38 1   
    13     5     9 ar  
    14     5    10 ar  
    15     5    47 1   
    16     6     7 ar  
    17     6    48 1   
    18     7     8 1   
    19     7     9 ar  
    20     8    39 1   
    21     8    40 1   
    22     9    49 1   
    23    10    11 1   
    24    11    12 2   
    25    11    29 1   
    26    12    13 1   
    27    13    24 1   
    28    14    21 ar  
    29    14    50 1   
    30    15    37 1   
    31    15    51 1   
    32    15    52 1   
    33    15    53 1   
    34    16    17 ar  
    35    16    22 ar  
    36    17    18 ar  
    37    17    43 1   
    38    18    19 ar  
    39    18    54 1   
    40    19    20 ar  
    41    19    55 1   
    42    20    22 ar  
    43    20    56 1   
    44    21    33 ar  
    45    21    37 1   
    46    22    23 1   
    47    23    34 1   
    48    23    35 1   
    49    23    36 1   
    50    24    25 ar  
    51    24    29 ar  
    52    25    26 ar  
    53    25    57 1   
    54    26    27 ar  
    55    26    58 1   
    56    27    28 ar  
    57    27    44 1   
    58    28    29 ar  
    59    28    59 1   
    60    30    31 ar  
    61    30    60 1   
    62    31    33 ar  
    63    31    42 1   
    64    32    42 1   
    65    32    61 1   
    66    32    62 1   
    67    32    63 1   
    68    33    64 1   
@<TRIPOS>SUBSTRUCTURE
     1 A1I         1 TEMP              0 ****  ****    0 ROOT
