@<TRIPOS>MOLECULE
A1I
   50    53     1     0     0
SMALL
abcg2


@<TRIPOS>ATOM
      1 C17         26.1840     6.3510     4.7520 c6         1 A1I      -0.179400
      2 C18         24.1280     4.9260     4.2860 c6         1 A1I      -0.179400
      3 C19         24.8210     6.2510     4.1190 c          1 A1I       0.571100
      4 C15         27.0610     5.1190     4.4750 c6         1 A1I      -0.066400
      5 C14         28.6960    -0.2510     6.0270 c3         1 A1I      -0.076100
      6 C13         24.3140     2.4140     4.0880 c6         1 A1I      -0.070400
      7 C12         25.0560     3.7410     3.9720 c6         1 A1I      -0.051700
      8 C11         28.6640     2.5120     4.8780 c          1 A1I       0.579100
      9 C10         28.2600    -2.1520     3.6740 c5         1 A1I      -0.075400
     10 C9          25.1980     1.2590     3.6360 c6         1 A1I      -0.070400
     11 C8          29.5290     1.3940     4.3280 c6         1 A1I      -0.172400
     12 C7          26.9570    -1.3180     3.7870 c5         1 A1I      -0.068400
     13 C6          29.4200    -1.1450     3.7770 c5         1 A1I       0.175300
     14 C5          26.3710     3.7780     4.8010 c6         1 A1I      -0.021000
     15 C4          27.2510     2.6000     4.2990 c6         1 A1I      -0.150700
     16 C3          26.5330     1.2160     4.3800 c6         1 A1I      -0.038700
     17 C2          28.8080     0.0560     4.5270 c5         1 A1I      -0.080000
     18 C1          27.4470     0.1380     3.8170 c5         1 A1I      -0.068700
     19 C16         26.0990     3.6590     6.3100 c3         1 A1I      -0.085100
     20 O21         29.0970     3.2650     5.7310 o          1 A1I      -0.523100
     21 O20         30.5460    -1.7650     4.3940 oh         1 A1I      -0.655000
     22 O22         24.3120     7.1810     3.5160 o          1 A1I      -0.526100
     23 H1          26.6690     7.2650     4.4120 hc         1 A1I       0.068700
     24 H2          26.0210     6.4490     5.8310 hc         1 A1I       0.068700
     25 H3          23.7830     4.8610     5.3240 hc         1 A1I       0.067700
     26 H4          23.2450     4.9030     3.6450 hc         1 A1I       0.067700
     27 H5          27.3340     5.1140     3.4150 hc         1 A1I       0.054700
     28 H6          27.9840     5.2140     5.0420 hc         1 A1I       0.054700
     29 H7          28.1870     0.5480     6.5660 hc         1 A1I       0.042033
     30 H8          28.1530    -1.1760     6.2150 hc         1 A1I       0.042033
     31 H9          29.6930    -0.3570     6.4550 hc         1 A1I       0.042033
     32 H10         23.4080     2.4510     3.4780 hc         1 A1I       0.045200
     33 H11         23.9870     2.2590     5.1210 hc         1 A1I       0.045200
     34 H12         25.3590     3.8460     2.9230 hc         1 A1I       0.046700
     35 H13         28.3140    -2.7140     2.7420 hc         1 A1I       0.058200
     36 H14         28.3430    -2.8700     4.4910 hc         1 A1I       0.058200
     37 H15         24.6780     0.3090     3.7750 hc         1 A1I       0.043700
     38 H16         25.3990     1.3570     2.5630 hc         1 A1I       0.043700
     39 H17         30.4970     1.4240     4.8320 hc         1 A1I       0.065700
     40 H18         29.6820     1.5640     3.2580 hc         1 A1I       0.065700
     41 H19         26.2770    -1.5000     2.9560 hc         1 A1I       0.047700
     42 H20         26.4170    -1.5600     4.7040 hc         1 A1I       0.047700
     43 H21         29.7060    -0.8020     2.7760 h1         1 A1I       0.028700
     44 H22         27.4230     2.7700     3.2260 hc         1 A1I       0.059700
     45 H23         26.3290     0.9920     5.4300 hc         1 A1I       0.059700
     46 H24         27.6630     0.4230     2.7790 hc         1 A1I       0.043700
     47 H25         25.4250     4.4390     6.6620 hc         1 A1I       0.041033
     48 H26         25.6450     2.7030     6.5650 hc         1 A1I       0.041033
     49 H27         27.0310     3.7480     6.8640 hc         1 A1I       0.041033
     50 H28         31.3050    -1.1740     4.3130 ho         1 A1I       0.443000
@<TRIPOS>BOND
     1     1     3 1   
     2     1     4 1   
     3     1    23 1   
     4     1    24 1   
     5     2     3 1   
     6     2     7 1   
     7     2    25 1   
     8     2    26 1   
     9     3    22 2   
    10     4    14 1   
    11     4    27 1   
    12     4    28 1   
    13     5    17 1   
    14     5    29 1   
    15     5    30 1   
    16     5    31 1   
    17     6     7 1   
    18     6    10 1   
    19     6    32 1   
    20     6    33 1   
    21     7    14 1   
    22     7    34 1   
    23     8    11 1   
    24     8    15 1   
    25     8    20 2   
    26     9    12 1   
    27     9    13 1   
    28     9    35 1   
    29     9    36 1   
    30    10    16 1   
    31    10    37 1   
    32    10    38 1   
    33    11    17 1   
    34    11    39 1   
    35    11    40 1   
    36    12    18 1   
    37    12    41 1   
    38    12    42 1   
    39    13    17 1   
    40    13    21 1   
    41    13    43 1   
    42    14    15 1   
    43    14    19 1   
    44    15    16 1   
    45    15    44 1   
    46    16    18 1   
    47    16    45 1   
    48    17    18 1   
    49    18    46 1   
    50    19    47 1   
    51    19    48 1   
    52    19    49 1   
    53    21    50 1   
@<TRIPOS>SUBSTRUCTURE
     1 A1I         1 TEMP              0 ****  ****    0 ROOT
