@<TRIPOS>MOLECULE
A1I
   59    63     1     0     0
SMALL
abcg2


@<TRIPOS>ATOM
      1 N1         -29.2260    18.2990    14.8080 nc         1 A1I      -0.473300
      2 C2         -31.4760    19.6960    10.3360 c3         1 A1I       0.224600
      3 C4         -33.1010    18.1000    12.1130 ca         1 A1I      -0.179000
      4 C5         -33.8270    17.3010    12.9930 ca         1 A1I      -0.081600
      5 C6         -35.3220    17.0670    12.7580 c          1 A1I       0.711600
      6 C8         -31.8300    16.9500    14.2830 ca         1 A1I      -0.073000
      7 C9         -31.0930    17.7350    13.4020 ca         1 A1I      -0.203900
      8 C10        -29.6620    17.9390    13.6390 cd         1 A1I       0.508500
      9 C12        -27.9380    18.8170    17.1310 ca         1 A1I      -0.057600
     10 C1         -31.5370    18.6640     9.2200 c3         1 A1I      -0.119100
     11 C13        -28.5520    17.7540    17.7800 ca         1 A1I       0.152000
     12 C14        -29.2350    17.9300    18.9720 ca         1 A1I      -0.078000
     13 C15        -29.3000    19.1940    19.5300 ca         1 A1I      -0.097000
     14 C16        -28.6850    20.2680    18.9080 ca         1 A1I      -0.070000
     15 C17        -28.0010    20.0830    17.7150 ca         1 A1I      -0.151300
     16 C18        -27.3080    21.2550    17.0770 c3         1 A1I       0.357300
     17 C19        -27.4130    17.9420    13.5030 ca         1 A1I      -0.072000
     18 C20        -26.1340    17.8010    12.9700 ca         1 A1I      -0.103000
     19 C21        -26.0460    17.3930    11.6540 ca         1 A1I      -0.084000
     20 C22        -27.1970    17.1280    10.9020 ca         1 A1I       0.074000
     21 C23        -28.4630    17.2640    11.4260 ca         1 A1I      -0.013000
     22 C24        -28.5590    17.6930    12.7460 ca         1 A1I      -0.189900
     23 C25        -30.5510    20.8380     9.9980 ca         1 A1I      -0.075300
     24 C26        -31.0570    22.1210     9.8290 ca         1 A1I      -0.087000
     25 C27        -30.2170    23.1760     9.4940 ca         1 A1I      -0.120000
     26 C28        -28.8560    22.9560     9.3360 ca         1 A1I      -0.114000
     27 C29        -28.3420    21.6760     9.5090 ca         1 A1I      -0.120000
     28 C3         -31.7430    18.3260    12.3090 ca         1 A1I       0.140100
     29 C30        -29.1830    20.6240     9.8340 ca         1 A1I      -0.087000
     30 C7         -33.1810    16.7270    14.0830 ca         1 A1I      -0.126000
     31 F1         -26.0080    21.2850    17.3900 f          1 A1I      -0.107333
     32 F2         -27.8280    22.4190    17.4690 f          1 A1I      -0.107333
     33 F3         -27.3920    21.2180    15.7410 f          1 A1I      -0.107333
     34 N2         -27.8710    18.3050    14.7550 n          1 A1I       0.055600
     35 O1         -30.9730    19.1250    11.5450 os         1 A1I      -0.366100
     36 O2         -35.8950    16.3240    13.5760 o          1 A1I      -0.712000
     37 O3         -35.8270    17.6420    11.7760 o          1 A1I      -0.712000
     38 O4         -25.9310    18.5590    15.8860 o          1 A1I      -0.537100
     39 CL1        -28.4600    16.1700    17.0980 cl         1 A1I      -0.169000
     40 CL2        -27.0180    16.6270     9.2530 cl         1 A1I      -0.219000
     41 H4         -32.4770    20.1050    10.5110 h1         1 A1I       0.061700
     42 H5         -33.6290    18.5440    11.2800 ha         1 A1I       0.139000
     43 H7         -31.3230    16.4930    15.1240 ha         1 A1I       0.101000
     44 H1         -31.9220    19.1310     8.3130 hc         1 A1I       0.046700
     45 H2         -30.5460    18.2650     8.9980 hc         1 A1I       0.046700
     46 H3         -32.1930    17.8310     9.4700 hc         1 A1I       0.046700
     47 H8         -29.7090    17.0870    19.4570 ha         1 A1I       0.136000
     48 H9         -29.8340    19.3420    20.4590 ha         1 A1I       0.123000
     49 H10        -28.7470    21.2460    19.3640 ha         1 A1I       0.132000
     50 H11        -25.2390    17.9960    13.5400 ha         1 A1I       0.142000
     51 H12        -25.0720    17.2760    11.1990 ha         1 A1I       0.121000
     52 H13        -29.3410    17.0450    10.8360 ha         1 A1I       0.150000
     53 H14        -32.1180    22.2990     9.9590 ha         1 A1I       0.119000
     54 H15        -30.6260    24.1700     9.3630 ha         1 A1I       0.106000
     55 H16        -28.1980    23.7770     9.0800 ha         1 A1I       0.102000
     56 H17        -27.2810    21.4980     9.3880 ha         1 A1I       0.106000
     57 H18        -28.7680    19.6310     9.9590 ha         1 A1I       0.119000
     58 H6         -33.7330    16.1040    14.7710 ha         1 A1I       0.135000
     59 C11        -27.1360    18.5600    15.8890 c          1 A1I       0.651700
@<TRIPOS>BOND
     1     1     8 2   
     2     1    34 1   
     3     2    10 1   
     4     2    23 1   
     5     2    35 1   
     6     2    41 1   
     7     3     4 ar  
     8     3    28 ar  
     9     3    42 1   
    10     4     5 1   
    11     4    30 ar  
    12     5    36 1   
    13     5    37 1   
    14     6     7 ar  
    15     6    30 ar  
    16     6    43 1   
    17     7     8 1   
    18     7    28 ar  
    19     8    22 1   
    20     9    11 ar  
    21     9    15 ar  
    22     9    59 1   
    23    10    44 1   
    24    10    45 1   
    25    10    46 1   
    26    11    12 ar  
    27    11    39 1   
    28    12    13 ar  
    29    12    47 1   
    30    13    14 ar  
    31    13    48 1   
    32    14    15 ar  
    33    14    49 1   
    34    15    16 1   
    35    16    31 1   
    36    16    32 1   
    37    16    33 1   
    38    17    18 ar  
    39    17    22 ar  
    40    17    34 1   
    41    18    19 ar  
    42    18    50 1   
    43    19    20 ar  
    44    19    51 1   
    45    20    21 ar  
    46    20    40 1   
    47    21    22 ar  
    48    21    52 1   
    49    23    24 ar  
    50    23    29 ar  
    51    24    25 ar  
    52    24    53 1   
    53    25    26 ar  
    54    25    54 1   
    55    26    27 ar  
    56    26    55 1   
    57    27    29 ar  
    58    27    56 1   
    59    28    35 1   
    60    29    57 1   
    61    30    58 1   
    62    34    59 1   
    63    38    59 2   
@<TRIPOS>SUBSTRUCTURE
     1 A1I         1 TEMP              0 ****  ****    0 ROOT
