@<TRIPOS>MOLECULE
A1I
   92    91     1     0     0
SMALL
abcg2


@<TRIPOS>ATOM
      1 O01          1.0500     9.6470    -4.0170 oh         1 A1I      -0.708000
      2 C02         -0.1380     8.9370    -3.7470 c3         1 A1I       0.159600
      3 C03          0.1460     7.4480    -3.8420 c3         1 A1I       0.176300
      4 O04          0.6260     7.1890    -5.1400 oh         1 A1I      -0.737000
      5 C05         -1.1240     6.6350    -3.5310 c3         1 A1I       0.130300
      6 O06         -1.6050     7.0160    -2.2570 oh         1 A1I      -0.722000
      7 C07         -0.8770     5.1200    -3.4950 c3         1 A1I       0.139300
      8 O08         -0.2900     4.7280    -4.7230 oh         1 A1I      -0.769000
      9 C09         -2.1700     4.3540    -3.2670 c3         1 A1I       0.200600
     10 O10         -1.8600     2.9740    -3.1800 os         1 A1I      -0.579400
     11 P11         -2.9200     1.9160    -3.8730 p5         1 A1I       1.399800
     12 O12         -2.2760     0.6150    -3.1090 os         1 A1I      -0.569400
     13 C13         -2.7700    -0.6540    -3.4820 c3         1 A1I       0.238600
     14 C14         -2.5480    -1.6850    -2.3740 c3         1 A1I       0.154300
     15 O15         -2.5110    -2.9330    -3.0330 oh         1 A1I      -0.772000
     16 C16         -3.6360    -1.6650    -1.2850 c3         1 A1I       0.168300
     17 O17         -3.7340    -0.3510    -0.7950 oh         1 A1I      -0.637000
     18 C18         -3.3240    -2.6340    -0.1300 c3         1 A1I       0.084300
     19 O19         -3.2250    -3.9500    -0.6570 oh         1 A1I      -0.769000
     20 C20         -4.4120    -2.6670     0.9430 c3         1 A1I       0.199600
     21 O21         -4.5630    -1.4180     1.5930 os         1 A1I      -0.588400
     22 P22         -3.9150    -1.1840     3.1030 p5         1 A1I       1.411800
     23 O23         -2.3430    -1.4950     2.7450 os         1 A1I      -0.625400
     24 C24         -1.5080    -2.2730     3.5850 c3         1 A1I       0.238600
     25 C25         -0.3800    -2.8760     2.7560 c3         1 A1I       0.176300
     26 O26         -0.8910    -3.9370     1.9840 oh         1 A1I      -0.771000
     27 C27          0.7810    -3.3640     3.6370 c3         1 A1I       0.142300
     28 O28          0.2710    -4.2530     4.6100 oh         1 A1I      -0.653000
     29 C29          1.5710    -2.2320     4.3160 c3         1 A1I       0.133300
     30 O30          1.8220    -1.2300     3.3570 oh         1 A1I      -0.735000
     31 C31          2.8690    -2.7680     4.9100 c3         1 A1I       0.186600
     32 O32          3.5720    -1.7180     5.5520 os         1 A1I      -0.591400
     33 P33          5.1400    -1.3950     5.1810 p5         1 A1I       1.407800
     34 O34          4.8450    -0.6270     3.7530 os         1 A1I      -0.625400
     35 C35          5.8230    -0.5480     2.7280 c3         1 A1I       0.235600
     36 C36          5.1280    -0.5640     1.3810 c3         1 A1I      -0.083400
     37 C37          4.4450    -1.8960     1.0830 c3         1 A1I      -0.069400
     38 C38          3.3280    -1.7860     0.0540 c3         1 A1I      -0.073400
     39 C39          2.4830    -3.0520    -0.0220 c3         1 A1I      -0.081400
     40 C40          1.2090    -2.8760    -0.8300 c3         1 A1I       0.139800
     41 N41          0.2860    -3.9830    -0.5850 n8         1 A1I      -1.009200
     42 O42          5.8950    -2.6620     4.9160 o          1 A1I      -0.829000
     43 O43          5.6050    -0.4020     6.1940 o          1 A1I      -0.829000
     44 O44         -4.4340    -2.2280     4.0410 o          1 A1I      -0.823000
     45 O45         -4.0920     0.2750     3.3600 o          1 A1I      -0.823000
     46 O46         -4.3080     2.1820    -3.3750 o          1 A1I      -0.835500
     47 O47         -2.6610     1.8330    -5.3480 o          1 A1I      -0.835500
     48 H031         0.9050     7.1930    -3.0810 h1         1 A1I       0.049700
     49 H051        -1.8630     6.8550    -4.3150 h1         1 A1I       0.041700
     50 H071        -0.1890     4.9170    -2.6600 h1         1 A1I       0.058700
     51 H141        -1.5810    -1.4630    -1.8910 h1         1 A1I       0.049700
     52 H161        -4.5840    -1.9840    -1.7550 h1         1 A1I       0.019700
     53 H181        -2.3740    -2.3300     0.3210 h1         1 A1I       0.082700
     54 H251         0.0200    -2.0870     2.1090 h1         1 A1I       0.070700
     55 H271         1.4770    -3.8900     2.9650 h1         1 A1I       0.013700
     56 H291         0.9650    -1.8290     5.1430 h1         1 A1I       0.057700
     57 H011         0.8730    10.5810    -3.8770 ho         1 A1I       0.479000
     58 H021        -0.5190     9.1640    -2.7480 h1         1 A1I       0.020200
     59 H022        -0.9320     9.1910    -4.4650 h1         1 A1I       0.020200
     60 H041         0.6290     6.2280    -5.2550 ho         1 A1I       0.543000
     61 H061        -2.5450     7.2040    -2.3170 ho         1 A1I       0.505000
     62 H081        -0.1130     3.7810    -4.6910 ho         1 A1I       0.553000
     63 H091        -2.6510     4.6870    -2.3430 h1         1 A1I       0.028200
     64 H092        -2.8570     4.5730    -4.0940 h1         1 A1I       0.028200
     65 H131        -3.8380    -0.6200    -3.7340 h1         1 A1I       0.017200
     66 H132        -2.2410    -1.0110    -4.3730 h1         1 A1I       0.017200
     67 H151        -2.6800    -3.6140    -2.3640 ho         1 A1I       0.518000
     68 H171        -4.1850    -0.3800     0.0610 ho         1 A1I       0.488000
     69 H191        -2.7160    -4.4870    -0.0390 ho         1 A1I       0.512000
     70 H201        -5.3670    -2.9250     0.4750 h1         1 A1I       0.024200
     71 H202        -4.1800    -3.4620     1.6600 h1         1 A1I       0.024200
     72 H241        -1.0950    -1.6380     4.3770 h1         1 A1I       0.034700
     73 H242        -2.0760    -3.0700     4.0700 h1         1 A1I       0.034700
     74 H261        -0.4220    -3.9700     1.1170 ho         1 A1I       0.527000
     75 H281         0.9210    -4.9370     4.7890 ho         1 A1I       0.419000
     76 H301         2.6230    -0.7520     3.6000 ho         1 A1I       0.536000
     77 H311         2.6470    -3.5460     5.6460 h1         1 A1I       0.019700
     78 H312         3.4700    -3.2320     4.1190 h1         1 A1I       0.019700
     79 H351         6.4030     0.3740     2.8430 h1         1 A1I       0.012700
     80 H352         6.5230    -1.3860     2.7960 h1         1 A1I       0.012700
     81 H361         4.3940     0.2490     1.3570 hc         1 A1I       0.031700
     82 H362         5.8650    -0.3300     0.6080 hc         1 A1I       0.031700
     83 H371         5.1880    -2.6340     0.7650 hc         1 A1I       0.040700
     84 H372         4.0060    -2.2830     2.0060 hc         1 A1I       0.040700
     85 H381         2.6790    -0.9510     0.3400 hc         1 A1I       0.041200
     86 H382         3.7330    -1.5340    -0.9300 hc         1 A1I       0.041200
     87 H391         3.0710    -3.8790    -0.4340 hc         1 A1I       0.036200
     88 H392         2.2090    -3.3510     0.9950 hc         1 A1I       0.036200
     89 H401         0.7080    -1.9540    -0.5250 h1         1 A1I       0.047200
     90 H402         1.4570    -2.7610    -1.8920 h1         1 A1I       0.047200
     91 H411        -0.4890    -3.9280    -1.2340 hn         1 A1I       0.393500
     92 H412         0.7460    -4.8640    -0.7880 hn         1 A1I       0.393500
@<TRIPOS>BOND
     1     1     2 1   
     2     1    57 1   
     3     2     3 1   
     4     2    58 1   
     5     2    59 1   
     6     3     4 1   
     7     3     5 1   
     8     3    48 1   
     9     4    60 1   
    10     5     6 1   
    11     5     7 1   
    12     5    49 1   
    13     6    61 1   
    14     7     8 1   
    15     7     9 1   
    16     7    50 1   
    17     8    62 1   
    18     9    10 1   
    19     9    63 1   
    20     9    64 1   
    21    10    11 1   
    22    11    12 1   
    23    11    46 1   
    24    11    47 1   
    25    12    13 1   
    26    13    14 1   
    27    13    65 1   
    28    13    66 1   
    29    14    15 1   
    30    14    16 1   
    31    14    51 1   
    32    15    67 1   
    33    16    17 1   
    34    16    18 1   
    35    16    52 1   
    36    17    68 1   
    37    18    19 1   
    38    18    20 1   
    39    18    53 1   
    40    19    69 1   
    41    20    21 1   
    42    20    70 1   
    43    20    71 1   
    44    21    22 1   
    45    22    23 1   
    46    22    44 1   
    47    22    45 1   
    48    23    24 1   
    49    24    25 1   
    50    24    72 1   
    51    24    73 1   
    52    25    26 1   
    53    25    27 1   
    54    25    54 1   
    55    26    74 1   
    56    27    28 1   
    57    27    29 1   
    58    27    55 1   
    59    28    75 1   
    60    29    30 1   
    61    29    31 1   
    62    29    56 1   
    63    30    76 1   
    64    31    32 1   
    65    31    77 1   
    66    31    78 1   
    67    32    33 1   
    68    33    34 1   
    69    33    42 1   
    70    33    43 1   
    71    34    35 1   
    72    35    36 1   
    73    35    79 1   
    74    35    80 1   
    75    36    37 1   
    76    36    81 1   
    77    36    82 1   
    78    37    38 1   
    79    37    83 1   
    80    37    84 1   
    81    38    39 1   
    82    38    85 1   
    83    38    86 1   
    84    39    40 1   
    85    39    87 1   
    86    39    88 1   
    87    40    41 1   
    88    40    89 1   
    89    40    90 1   
    90    41    91 1   
    91    41    92 1   
@<TRIPOS>SUBSTRUCTURE
     1 A1I         1 TEMP              0 ****  ****    0 ROOT
