@<TRIPOS>MOLECULE
A1I
   24    24     1     0     0
SMALL
abcg2


@<TRIPOS>ATOM
      1 C1          18.1000     5.4060    12.8710 c3         1 A1I      -0.037500
      2 C2          17.7290     6.5030    11.8800 c3         1 A1I      -0.087100
      3 C3          19.2830     5.8360    13.7450 c3         1 A1I      -0.087100
      4 C4          16.9620     4.9440    13.7640 cc         1 A1I       0.027800
      5 C5          17.0880     3.6110    14.2220 cc         1 A1I      -0.234000
      6 C6          16.2930     2.8580    15.0380 cd         1 A1I       0.071900
      7 C7          15.0270     3.2010    15.7120 c          1 A1I       0.531500
      8 C8          14.4370     4.4950    15.6190 cc         1 A1I      -0.306200
      9 C9          14.8480     5.6000    14.9290 cd         1 A1I      -0.067000
     10 C10         15.9600     5.8200    14.0950 cd         1 A1I      -0.235000
     11 O11         16.6630     1.6110    15.2920 oh         1 A1I      -0.526100
     12 O12         14.5170     2.2840    16.3730 o          1 A1I      -0.593100
     13 H1          18.4180     4.5360    12.2890 hc         1 A1I       0.058700
     14 H2          16.8460     6.2390    11.2960 hc         1 A1I       0.039200
     15 H3          17.5390     7.4590    12.3680 hc         1 A1I       0.039200
     16 H4          18.5540     6.6580    11.1840 hc         1 A1I       0.039200
     17 H5          19.5950     5.0390    14.4210 hc         1 A1I       0.039200
     18 H6          20.1390     6.1000    13.1220 hc         1 A1I       0.039200
     19 H7          19.0200     6.7070    14.3470 hc         1 A1I       0.039200
     20 H9          17.9650     3.0830    13.8570 ha         1 A1I       0.194000
     21 H10         13.5210     4.5970    16.1880 ha         1 A1I       0.197000
     22 H12         14.1990     6.4620    15.0380 ha         1 A1I       0.174000
     23 H13         16.0120     6.8140    13.6710 ha         1 A1I       0.183000
     24 H14         15.9630     1.2480    15.8750 ho         1 A1I       0.502000
@<TRIPOS>BOND
     1     1     2 1   
     2     1     3 1   
     3     1     4 1   
     4     1    13 1   
     5     2    14 1   
     6     2    15 1   
     7     2    16 1   
     8     3    17 1   
     9     3    18 1   
    10     3    19 1   
    11     4     5 1   
    12     4    10 2   
    13     5     6 2   
    14     5    20 1   
    15     6     7 1   
    16     6    11 1   
    17     7     8 1   
    18     7    12 2   
    19     8     9 2   
    20     8    21 1   
    21     9    10 1   
    22     9    22 1   
    23    10    23 1   
    24    11    24 1   
@<TRIPOS>SUBSTRUCTURE
     1 A1I         1 TEMP              0 ****  ****    0 ROOT
