@<TRIPOS>MOLECULE
A1I
   50    50     1     0     0
SMALL
abcg2


@<TRIPOS>ATOM
      1 C1           0.7210    -7.1760    22.9130 ca         1 A1I      -0.134000
      2 C2          -0.3570    -7.9920    22.6110 ca         1 A1I      -0.071000
      3 C3          -1.6500    -7.4970    22.5870 ca         1 A1I       0.057000
      4 C4          -1.8600    -6.1530    22.8710 ca         1 A1I       0.154000
      5 C5          -0.7940    -5.3280    23.1770 ca         1 A1I      -0.186000
      6 C6           0.5100    -5.8270    23.2020 ca         1 A1I       0.037000
      7 C10          3.7920    -4.6430    26.6770 c3         1 A1I      -0.093100
      8 C11          3.8600    -2.2020    26.0670 c3         1 A1I      -0.093100
      9 C12          5.4810    -4.0170    22.7290 c          1 A1I       0.634100
     10 C13          6.9870    -4.0650    22.6610 c3         1 A1I      -0.442700
     11 C14          7.5230    -3.9900    21.2370 c3         1 A1I      -0.011400
     12 C15          7.4070    -5.2750    20.4080 c3         1 A1I      -0.069700
     13 C16          8.3400    -6.3650    20.9270 c3         1 A1I      -0.074600
     14 C17          7.7070    -4.9870    18.9400 c3         1 A1I      -0.074600
     15 C7           2.8320    -5.1620    23.7970 c          1 A1I       0.601100
     16 C8           3.5880    -3.9030    24.2260 c3         1 A1I       0.071700
     17 C9           3.2970    -3.5750    25.7050 c3         1 A1I      -0.047700
     18 N1           1.5210    -4.9200    23.5080 ns         1 A1I      -0.150000
     19 N2           4.9890    -4.0580    23.9880 ns         1 A1I      -0.528900
     20 O1           3.3400    -6.2630    23.7510 o          1 A1I      -0.559100
     21 O5           4.7390    -3.9440    21.7500 o          1 A1I      -0.720100
     22 P1           7.7320    -2.7310    23.7940 p5         1 A1I       1.290500
     23 CL1         -2.9670    -8.5410    22.2060 cl         1 A1I      -0.218000
     24 CL2         -3.4500    -5.4920    22.8520 cl         1 A1I      -0.213000
     25 H1           1.7110    -7.5990    22.9150 ha         1 A1I       0.166000
     26 H2          -0.1830    -9.0360    22.3880 ha         1 A1I       0.120000
     27 H3          -0.9800    -4.2850    23.4000 ha         1 A1I       0.126000
     28 H10          3.5160    -4.3710    27.6960 hc         1 A1I       0.042367
     29 H9           3.3600    -5.6230    26.4750 hc         1 A1I       0.042367
     30 H8           4.8780    -4.7450    26.6520 hc         1 A1I       0.042367
     31 H12          3.5630    -1.9290    27.0810 hc         1 A1I       0.042367
     32 H13          4.9490    -2.1870    26.0230 hc         1 A1I       0.042367
     33 H11          3.4840    -1.4310    25.3920 hc         1 A1I       0.042367
     34 H14          7.2940    -5.0110    23.1240 hc         1 A1I       0.055700
     35 H16          7.0260    -3.1730    20.7070 hc         1 A1I       0.046200
     36 H15          8.5820    -3.7160    21.2830 hc         1 A1I       0.046200
     37 H17          6.3780    -5.6410    20.4760 hc         1 A1I       0.049700
     38 H18          8.2330    -7.2860    20.3500 hc         1 A1I       0.011700
     39 H20          9.3830    -6.0480    20.8520 hc         1 A1I       0.011700
     40 H19          8.1450    -6.6120    21.9720 hc         1 A1I       0.011700
     41 H22          7.6290    -5.8890    18.3290 hc         1 A1I       0.011700
     42 H21          7.0180    -4.2460    18.5300 hc         1 A1I       0.011700
     43 H23          8.7220    -4.5970    18.8190 hc         1 A1I       0.011700
     44 H5           3.1890    -3.0660    23.6340 h1         1 A1I       0.043700
     45 H7           2.2080    -3.5150    25.7990 hc         1 A1I      -0.005300
     46 H4           1.2220    -3.9580    23.5770 hn         1 A1I       0.154000
     47 H6           5.6920    -3.8140    24.7140 hn         1 A1I       0.405500
     48 O2           7.1940    -3.1390    25.1940 o          1 A1I      -0.896833
     49 O3           9.2440    -2.8980    23.6680 o          1 A1I      -0.896833
     50 O4           7.1690    -1.4080    23.2790 o          1 A1I      -0.896833
@<TRIPOS>BOND
     1     1     2 ar  
     2     1     6 ar  
     3     1    25 1   
     4     2     3 ar  
     5     2    26 1   
     6     3     4 ar  
     7     3    23 1   
     8     4     5 ar  
     9     4    24 1   
    10     5     6 ar  
    11     5    27 1   
    12     6    18 1   
    13     7    17 1   
    14     7    28 1   
    15     7    29 1   
    16     7    30 1   
    17     8    17 1   
    18     8    31 1   
    19     8    32 1   
    20     8    33 1   
    21     9    10 1   
    22     9    19 1   
    23     9    21 2   
    24    10    11 1   
    25    10    22 1   
    26    10    34 1   
    27    11    12 1   
    28    11    35 1   
    29    11    36 1   
    30    12    13 1   
    31    12    14 1   
    32    12    37 1   
    33    13    38 1   
    34    13    39 1   
    35    13    40 1   
    36    14    41 1   
    37    14    42 1   
    38    14    43 1   
    39    15    16 1   
    40    15    18 1   
    41    15    20 2   
    42    16    17 1   
    43    16    19 1   
    44    16    44 1   
    45    17    45 1   
    46    18    46 1   
    47    19    47 1   
    48    22    48 1   
    49    22    49 1   
    50    22    50 1   
@<TRIPOS>SUBSTRUCTURE
     1 A1I         1 TEMP              0 ****  ****    0 ROOT
