@<TRIPOS>MOLECULE
A1I
   63    66     1     0     0
SMALL
abcg2


@<TRIPOS>ATOM
      1 C4         -52.9760     0.7930   -25.8500 cc         1 A1I      -0.327200
      2 C14        -51.4170     0.8900   -19.0950 ca         1 A1I       0.229000
      3 C5         -51.8640     0.0070   -25.3670 c          1 A1I       0.578200
      4 C6         -50.5580    -0.7230   -23.4590 ca         1 A1I       0.054600
      5 C11        -50.7760    -2.0520   -23.1310 ca         1 A1I      -0.082000
      6 C7         -49.3160    -0.1390   -23.2630 ca         1 A1I      -0.082000
      7 C8         -48.2820    -0.8950   -22.7300 ca         1 A1I      -0.107500
      8 C9         -48.4910    -2.2280   -22.4000 ca         1 A1I      -0.109000
      9 C10        -49.7370    -2.8060   -22.6030 ca         1 A1I      -0.107500
     10 C12        -52.3910     0.8140   -23.1380 ca         1 A1I       0.311900
     11 C13        -52.7970     1.5350   -21.0370 ca         1 A1I       0.424900
     12 N1         -51.6330     0.0570   -23.9900 n          1 A1I      -0.297500
     13 N2         -52.0630     0.8010   -21.8610 nb         1 A1I      -0.285000
     14 C3         -53.7640     1.5390   -25.0420 cd         1 A1I       0.064600
     15 N3         -52.4890     1.5470   -19.7250 nu         1 A1I      -0.913900
     16 C1         -56.2540     1.5260   -25.3390 c3         1 A1I      -0.088100
     17 C2         -54.9470     2.2790   -25.5920 c3         1 A1I      -0.047200
     18 O1         -51.1480    -0.6770   -26.0790 o          1 A1I      -0.523000
     19 C15        -51.0510    -0.4200   -19.3910 ca         1 A1I      -0.074000
     20 C16        -49.9920    -1.0270   -18.7420 ca         1 A1I      -0.176000
     21 C17        -49.2590    -0.3680   -17.7380 ca         1 A1I       0.331000
     22 N4         -48.2250    -0.9810   -17.0720 nh         1 A1I      -0.808400
     23 C18        -47.4690    -0.2240   -16.1030 c3         1 A1I       0.217100
     24 C19        -47.6170    -2.1770   -17.6150 c3         1 A1I       0.230800
     25 C20        -46.7820    -1.9480   -18.8710 c3         1 A1I       0.127800
     26 N5         -45.6520    -1.0630   -18.6660 n3         1 A1I      -0.711600
     27 C21        -45.1480    -0.5590   -19.9260 c3         1 A1I       0.148600
     28 C22        -44.5890    -1.6900   -17.9100 c3         1 A1I       0.148600
     29 C23        -49.6560     0.9460   -17.4340 ca         1 A1I      -0.176000
     30 C24        -50.7060     1.5540   -18.1020 ca         1 A1I      -0.074000
     31 N6         -53.8490     2.2990   -21.3930 nb         1 A1I      -0.265000
     32 C25        -54.1570     2.2990   -22.6680 ca         1 A1I       0.199900
     33 C26        -53.4680     1.5650   -23.6390 ca         1 A1I      -0.295800
     34 H4         -53.1600     0.7500   -26.9160 ha         1 A1I       0.209000
     35 H9         -51.7540    -2.4910   -23.2840 ha         1 A1I       0.122000
     36 H5         -49.1630     0.9010   -23.5200 ha         1 A1I       0.122000
     37 H6         -47.3120    -0.4420   -22.5690 ha         1 A1I       0.112500
     38 H7         -47.6830    -2.8150   -21.9830 ha         1 A1I       0.108000
     39 H8         -49.9040    -3.8440   -22.3470 ha         1 A1I       0.112500
     40 H10        -53.0170     2.2050   -19.1710 hn         1 A1I       0.513000
     41 H2         -57.0950     2.0780   -25.7550 hc         1 A1I       0.039700
     42 H1         -56.2300     0.5430   -25.8100 hc         1 A1I       0.039700
     43 H3         -54.8110     2.4140   -26.6650 hc         1 A1I       0.053200
     44 H11        -51.5840    -0.9840   -20.1420 ha         1 A1I       0.119000
     45 H12        -49.7530    -2.0420   -19.0270 ha         1 A1I       0.113500
     46 H13        -46.7330    -0.8770   -15.6400 h1         1 A1I       0.035367
     47 H14        -46.9310     0.6240   -16.5400 h1         1 A1I       0.035367
     48 H15        -48.1120     0.1550   -15.3060 h1         1 A1I       0.035367
     49 H17        -48.3840    -2.9210   -17.8420 h1         1 A1I       0.049700
     50 H16        -47.0150    -2.6300   -16.8270 h1         1 A1I       0.049700
     51 H19        -47.4210    -1.5040   -19.6390 h1         1 A1I       0.041200
     52 H18        -46.4710    -2.9310   -19.2660 h1         1 A1I       0.041200
     53 H22        -44.3350     0.1460   -19.7480 h1         1 A1I       0.030533
     54 H20        -44.7630    -1.3500   -20.5900 h1         1 A1I       0.030533
     55 H21        -45.9370    -0.0300   -20.4630 h1         1 A1I       0.030533
     56 H25        -44.9300    -1.9880   -16.9180 h1         1 A1I       0.030533
     57 H23        -44.1790    -2.5840   -18.4060 h1         1 A1I       0.030533
     58 H24        -43.7700    -0.9830   -17.7690 h1         1 A1I       0.030533
     59 H26        -49.1380     1.5210   -16.6790 ha         1 A1I       0.113500
     60 H27        -50.9660     2.5750   -17.8480 ha         1 A1I       0.119000
     61 H28        -55.0020     2.9180   -22.9530 h4         1 A1I       0.025100
     62 H29        -56.4430     1.3820   -24.2760 hc         1 A1I       0.039700
     63 H30        -55.0060     3.2800   -25.1600 hc         1 A1I       0.053200
@<TRIPOS>BOND
     1     1     3 1   
     2     1    14 2   
     3     1    34 1   
     4     2    15 1   
     5     2    19 ar  
     6     2    30 ar  
     7     3    12 1   
     8     3    18 2   
     9     4     5 ar  
    10     4     6 ar  
    11     4    12 1   
    12     5     9 ar  
    13     5    35 1   
    14     6     7 ar  
    15     6    36 1   
    16     7     8 ar  
    17     7    37 1   
    18     8     9 ar  
    19     8    38 1   
    20     9    39 1   
    21    10    12 1   
    22    10    13 ar  
    23    10    33 ar  
    24    11    13 ar  
    25    11    15 1   
    26    11    31 ar  
    27    14    17 1   
    28    14    33 1   
    29    15    40 1   
    30    16    17 1   
    31    16    41 1   
    32    16    42 1   
    33    16    62 1   
    34    17    43 1   
    35    17    63 1   
    36    19    20 ar  
    37    19    44 1   
    38    20    21 ar  
    39    20    45 1   
    40    21    22 1   
    41    21    29 ar  
    42    22    23 1   
    43    22    24 1   
    44    23    46 1   
    45    23    47 1   
    46    23    48 1   
    47    24    25 1   
    48    24    49 1   
    49    24    50 1   
    50    25    26 1   
    51    25    51 1   
    52    25    52 1   
    53    26    27 1   
    54    26    28 1   
    55    27    53 1   
    56    27    54 1   
    57    27    55 1   
    58    28    56 1   
    59    28    57 1   
    60    28    58 1   
    61    29    30 ar  
    62    29    59 1   
    63    30    60 1   
    64    31    32 ar  
    65    32    33 ar  
    66    32    61 1   
@<TRIPOS>SUBSTRUCTURE
     1 A1I         1 TEMP              0 ****  ****    0 ROOT
