@<TRIPOS>MOLECULE
A1I
   46    47     1     0     0
SMALL
abcg2


@<TRIPOS>ATOM
      1 O8         131.3930    20.0230     8.0710 o          1 A1I      -0.621100
      2 C12        130.4940    19.1730     8.1590 c          1 A1I       0.595100
      3 C13        129.0830    19.5300     8.5720 c3         1 A1I      -0.148400
      4 C14        128.9110    21.0020     8.9180 c3         1 A1I      -0.079100
      5 N2         130.7370    17.8810     7.8630 n          1 A1I      -0.429800
      6 C11        129.7680    16.7740     7.9280 c5         1 A1I       0.102000
      7 C10        130.4890    15.6460     7.1930 c5         1 A1I      -0.097400
      8 C9         131.9630    15.8880     7.5300 c5         1 A1I      -0.077400
      9 C8         132.0920    17.4240     7.5460 c5         1 A1I       0.024700
     10 C7         132.6520    17.9880     6.2390 c          1 A1I       0.605100
     11 O7         133.8630    17.9880     6.0450 o          1 A1I      -0.587100
     12 N1         131.7430    18.4610     5.3580 ns         1 A1I      -0.486900
     13 C1         132.0690    19.3230     4.2610 c6         1 A1I       0.294700
     14 O5         131.6220    18.7100     3.0640 os         1 A1I      -0.461000
     15 C5         131.9110    19.4990     1.9010 c6         1 A1I       0.149300
     16 C6         131.5290    18.6790     0.6880 c3         1 A1I      -0.090100
     17 C4         131.1860    20.8480     1.9900 c6         1 A1I       0.104300
     18 O4         129.7680    20.7000     2.0220 oh         1 A1I      -0.700000
     19 C3         131.6280    21.5750     3.2610 c6         1 A1I       0.186300
     20 O3         130.9350    22.8000     3.4620 oh         1 A1I      -0.628000
     21 C2         131.4170    20.7010     4.4850 c6         1 A1I       0.139300
     22 O2         132.0100    21.3350     5.6070 oh         1 A1I      -0.720000
     23 H21        128.4130    19.2480     7.7530 hc         1 A1I       0.057700
     24 H20        128.8000    18.8950     9.4170 hc         1 A1I       0.057700
     25 H22        127.8770    21.1980     9.2010 hc         1 A1I       0.047700
     26 H23        129.5540    21.2890     9.7500 hc         1 A1I       0.047700
     27 H24        129.1600    21.6370     8.0670 hc         1 A1I       0.047700
     28 H18        129.5680    16.5110     8.9700 h1         1 A1I       0.050200
     29 H19        128.8290    17.0540     7.4550 h1         1 A1I       0.050200
     30 H16        130.1390    14.6640     7.5080 hc         1 A1I       0.062700
     31 H17        130.3240    15.7400     6.1180 hc         1 A1I       0.062700
     32 H15        132.6510    15.4300     6.8220 hc         1 A1I       0.067700
     33 H14        132.1920    15.5030     8.5250 hc         1 A1I       0.067700
     34 H13        132.7890    17.7580     8.3140 h1         1 A1I       0.100700
     35 HN1        130.7740    18.4380     5.6420 hn         1 A1I       0.315500
     36 H1         133.1560    19.4430     4.2410 h2         1 A1I       0.082700
     37 H5         132.9900    19.7080     1.8770 h1         1 A1I       0.043700
     38 H61        132.1060    17.7540     0.6610 hc         1 A1I       0.048367
     39 H63        130.4680    18.4220     0.7110 hc         1 A1I       0.048367
     40 H62        131.7330    19.2420    -0.2240 hc         1 A1I       0.048367
     41 H4         131.4810    21.4550     1.1260 h1         1 A1I       0.034700
     42 HO4        129.4590    20.4720     1.1380 ho         1 A1I       0.500000
     43 H3         132.7050    21.7650     3.1690 h1         1 A1I       0.046700
     44 HO3        131.1290    23.3850     2.7190 ho         1 A1I       0.438000
     45 H2         130.3420    20.5570     4.6420 h1         1 A1I       0.059700
     46 HO2        131.7510    20.8650     6.4220 ho         1 A1I       0.538000
@<TRIPOS>BOND
     1     1     2 2   
     2     2     3 1   
     3     2     5 1   
     4     3     4 1   
     5     3    23 1   
     6     3    24 1   
     7     4    25 1   
     8     4    26 1   
     9     4    27 1   
    10     5     6 1   
    11     5     9 1   
    12     6     7 1   
    13     6    28 1   
    14     6    29 1   
    15     7     8 1   
    16     7    30 1   
    17     7    31 1   
    18     8     9 1   
    19     8    32 1   
    20     8    33 1   
    21     9    10 1   
    22     9    34 1   
    23    10    11 2   
    24    10    12 1   
    25    12    13 1   
    26    12    35 1   
    27    13    14 1   
    28    13    21 1   
    29    13    36 1   
    30    14    15 1   
    31    15    16 1   
    32    15    17 1   
    33    15    37 1   
    34    16    38 1   
    35    16    39 1   
    36    16    40 1   
    37    17    18 1   
    38    17    19 1   
    39    17    41 1   
    40    18    42 1   
    41    19    20 1   
    42    19    21 1   
    43    19    43 1   
    44    20    44 1   
    45    21    22 1   
    46    21    45 1   
    47    22    46 1   
@<TRIPOS>SUBSTRUCTURE
     1 A1I         1 TEMP              0 ****  ****    0 ROOT
