@<TRIPOS>MOLECULE
A1I
   26    28     1     0     0
SMALL
abcg2


@<TRIPOS>ATOM
      1 C1           0.2180    -0.2250    90.9890 cc         1 A1I       0.427000
      2 C2           0.0650    -0.5400    89.5670 ca         1 A1I      -0.085500
      3 C3          -0.0110     0.4560    88.5540 ca         1 A1I      -0.065000
      4 C4          -0.1970     0.0100    87.2180 ca         1 A1I       0.264000
      5 C5          -0.1560    -2.1850    87.8360 ca         1 A1I       0.348900
      6 C6           0.0090    -1.8580    89.1940 ca         1 A1I      -0.120000
      7 C           -0.0680     0.6120    92.9600 cc         1 A1I       0.388800
      8 N2          -0.4940     0.6990    91.6790 na         1 A1I      -0.496000
      9 N1           1.0320    -0.8360    91.8050 nd         1 A1I      -0.343000
     10 N            0.8550    -0.3090    93.0390 nd         1 A1I      -0.359000
     11 N3          -0.2710    -1.3000    86.8850 nb         1 A1I      -0.650000
     12 C7          -0.2970     0.9610    86.1770 ca         1 A1I      -0.075000
     13 C8          -0.1940     2.2970    86.4430 ca         1 A1I      -0.105000
     14 C9           0.0290     2.7410    87.7610 ca         1 A1I      -0.098000
     15 C10          0.1210     1.8450    88.7910 ca         1 A1I      -0.108000
     16 H1          -0.2090    -3.2290    87.5460 h4         1 A1I       0.026100
     17 H2           0.0650    -2.6470    89.9310 ha         1 A1I       0.143000
     18 H3          -0.0790     1.1750    94.9950 hc         1 A1I       0.061033
     19 H4          -0.4170     2.5040    93.8800 hc         1 A1I       0.061033
     20 H5          -1.6560     1.2970    94.2080 hc         1 A1I       0.061033
     21 H6          -1.2380     1.2870    91.3320 hn         1 A1I       0.364000
     22 H7          -0.4500     0.5990    85.1680 ha         1 A1I       0.135000
     23 H8          -0.2690     3.0190    85.6400 ha         1 A1I       0.120000
     24 H9           0.1360     3.7990    87.9600 ha         1 A1I       0.116000
     25 H10          0.3170     2.2130    89.7890 ha         1 A1I       0.114000
     26 C11         -0.5850     1.4440    94.0700 c3         1 A1I      -0.126400
@<TRIPOS>BOND
     1     1     2 1   
     2     1     8 1   
     3     1     9 2   
     4     2     3 ar  
     5     2     6 ar  
     6     3     4 ar  
     7     3    15 ar  
     8     4    11 ar  
     9     4    12 ar  
    10     5     6 ar  
    11     5    11 ar  
    12     5    16 1   
    13     6    17 1   
    14     7     8 1   
    15     7    10 2   
    16     7    26 1   
    17     8    21 1   
    18     9    10 1   
    19    12    13 ar  
    20    12    22 1   
    21    13    14 ar  
    22    13    23 1   
    23    14    15 ar  
    24    14    24 1   
    25    15    25 1   
    26    18    26 1   
    27    19    26 1   
    28    20    26 1   
@<TRIPOS>SUBSTRUCTURE
     1 A1I         1 TEMP              0 ****  ****    0 ROOT
