@<TRIPOS>MOLECULE
A1I
   27    29     1     0     0
SMALL
abcg2


@<TRIPOS>ATOM
      1 C4           0.0040    -0.6560    72.4660 cp         1 A1I       0.019000
      2 C5          -0.0200    -1.9500    72.9360 ca         1 A1I      -0.102000
      3 C6          -0.0020    -2.2420    74.3120 ca         1 A1I      -0.102000
      4 C11          0.1200     2.4720    75.2240 ca         1 A1I      -0.166000
      5 C7           0.0520    -1.2320    75.2310 ca         1 A1I      -0.093000
      6 C8           0.0750     0.1120    74.7970 ca         1 A1I      -0.081000
      7 N1           0.8150     0.6580    69.0530 nb         1 A1I      -0.250000
      8 N2           0.0320     1.6870    72.9600 nb         1 A1I      -0.664000
      9 C1          -0.1000    -0.0270    68.3550 ca         1 A1I       0.377900
     10 N           -0.9850    -0.8820    68.8780 nb         1 A1I      -0.250000
     11 C2           0.8350     0.4670    70.3570 ca         1 A1I       0.175900
     12 C3          -0.0350    -0.3990    71.0190 cp         1 A1I      -0.205000
     13 C           -0.9380    -1.0520    70.1860 ca         1 A1I       0.175900
     14 C9           0.0430     0.4120    73.4110 ca         1 A1I       0.277000
     15 C10          0.0690     2.6620    73.8290 ca         1 A1I       0.353900
     16 C12          0.1190     1.1940    75.7040 ca         1 A1I      -0.061000
     17 H1          -0.0340    -2.7710    72.2300 ha         1 A1I       0.118000
     18 H2          -0.0190    -3.2740    74.6350 ha         1 A1I       0.117000
     19 H3           0.1520     3.3260    75.8850 ha         1 A1I       0.125000
     20 H4           0.0780    -1.4440    76.2930 ha         1 A1I       0.116000
     21 H5          -0.8820    -0.2240    66.4870 hn         1 A1I       0.496500
     22 H6           0.4200     0.8900    66.6150 hn         1 A1I       0.496500
     23 H7           1.5910     1.0140    70.9100 h4         1 A1I       0.025100
     24 H8          -1.6670    -1.7380    70.6080 h4         1 A1I       0.025100
     25 H9           0.0570     3.6710    73.4280 h4         1 A1I       0.020100
     26 H10          0.1480     0.9950    76.7680 ha         1 A1I       0.119000
     27 N3          -0.1100     0.1380    67.0200 nv         1 A1I      -1.063900
@<TRIPOS>BOND
     1     1     2 ar  
     2     1    12 1   
     3     1    14 ar  
     4     2     3 ar  
     5     2    17 1   
     6     3     5 ar  
     7     3    18 1   
     8     4    15 ar  
     9     4    16 ar  
    10     4    19 1   
    11     5     6 ar  
    12     5    20 1   
    13     6    14 ar  
    14     6    16 ar  
    15     7     9 ar  
    16     7    11 ar  
    17     8    14 ar  
    18     8    15 ar  
    19     9    10 ar  
    20     9    27 1   
    21    10    13 ar  
    22    11    12 ar  
    23    11    23 1   
    24    12    13 ar  
    25    13    24 1   
    26    15    25 1   
    27    16    26 1   
    28    21    27 1   
    29    22    27 1   
@<TRIPOS>SUBSTRUCTURE
     1 A1I         1 TEMP              0 ****  ****    0 ROOT
