@<TRIPOS>MOLECULE
A1I
   30    33     1     0     0
SMALL
abcg2


@<TRIPOS>ATOM
      1 C1           0.5800    21.2300   -23.7160 cp         1 A1I       0.311500
      2 C2           0.6290    21.4670   -25.1750 cp         1 A1I      -0.133500
      3 C3           1.5480    22.3640   -25.6650 ca         1 A1I      -0.057000
      4 C4           1.6220    22.6640   -27.0370 ca         1 A1I      -0.115000
      5 C5           0.7850    22.0440   -27.9230 ca         1 A1I      -0.078000
      6 C6          -0.1510    21.0920   -27.4640 ca         1 A1I      -0.089000
      7 C7          -0.2360    20.7920   -26.0800 ca         1 A1I       0.291000
      8 C8          -1.8710    19.2350   -26.4480 ca         1 A1I       0.357900
      9 C9          -1.8790    19.4720   -27.8370 ca         1 A1I      -0.168000
     10 C10         -1.0130    20.3980   -28.3410 ca         1 A1I      -0.058000
     11 C12         -0.4290    21.1440   -21.5750 ca         1 A1I       0.177500
     12 C13         -1.9880    21.5220   -23.1250 cc         1 A1I       0.418800
     13 C            1.7600    20.8860   -21.7640 ca         1 A1I       0.412900
     14 N5           0.7170    20.9340   -20.9420 nb         1 A1I      -0.275000
     15 N3          -1.6530    21.2730   -21.0360 na         1 A1I      -0.175100
     16 N4          -2.5970    21.5050   -21.9710 nd         1 A1I      -0.531100
     17 C11         -0.5960    21.2960   -22.9600 ca         1 A1I      -0.353900
     18 N1           1.7330    21.0330   -23.1110 nb         1 A1I      -0.279000
     19 N2          -1.0900    19.8570   -25.6050 nb         1 A1I      -0.659000
     20 H1           2.2160    22.8670   -24.9790 ha         1 A1I       0.129000
     21 H2           2.3440    23.3910   -27.3840 ha         1 A1I       0.120000
     22 H3           0.8320    22.2680   -28.9820 ha         1 A1I       0.117000
     23 H4          -2.5430    18.4930   -26.0300 h4         1 A1I       0.022100
     24 H5          -2.5530    18.9180   -28.4760 ha         1 A1I       0.126000
     25 H6          -0.9720    20.6080   -29.4030 ha         1 A1I       0.120000
     26 H7          -2.5430    21.6910   -24.0350 h4         1 A1I       0.052800
     27 H8           3.7880    20.7740   -21.8010 hn         1 A1I       0.497500
     28 H9           3.0880    20.6910   -20.2340 hn         1 A1I       0.497500
     29 H10         -1.9080    21.2200   -20.0630 hn         1 A1I       0.383000
     30 N            2.9710    20.6430   -21.2310 nv         1 A1I      -1.061900
@<TRIPOS>BOND
     1     1     2 1   
     2     1    17 ar  
     3     1    18 ar  
     4     2     3 ar  
     5     2     7 ar  
     6     3     4 ar  
     7     3    20 1   
     8     4     5 ar  
     9     4    21 1   
    10     5     6 ar  
    11     5    22 1   
    12     6     7 ar  
    13     6    10 ar  
    14     7    19 ar  
    15     8     9 ar  
    16     8    19 ar  
    17     8    23 1   
    18     9    10 ar  
    19     9    24 1   
    20    10    25 1   
    21    11    14 ar  
    22    11    15 1   
    23    11    17 ar  
    24    12    16 2   
    25    12    17 1   
    26    12    26 1   
    27    13    14 ar  
    28    13    18 ar  
    29    13    30 1   
    30    15    16 1   
    31    15    29 1   
    32    27    30 1   
    33    28    30 1   
@<TRIPOS>SUBSTRUCTURE
     1 A1I         1 TEMP              0 ****  ****    0 ROOT
