@<TRIPOS>MOLECULE
A1I
   24    26     1     0     0
SMALL
abcg2


@<TRIPOS>ATOM
      1 N1          -1.3140    20.0350   -27.4250 na         1 A1I      -0.000200
      2 C2           0.9330    21.2310   -20.7940 ca         1 A1I      -0.085000
      3 C4           0.0700    20.9130   -23.0610 ca         1 A1I      -0.070000
      4 C5           1.4050    20.7550   -23.5000 ca         1 A1I      -0.090000
      5 C6          -1.0610    20.8370   -23.9260 ca         1 A1I       0.066000
      6 C7          -2.3050    20.9360   -23.3510 ca         1 A1I      -0.175000
      7 C9          -0.9400    20.6600   -25.3710 cc         1 A1I      -0.175000
      8 C10         -1.7250    19.8470   -26.1660 cd         1 A1I      -0.150000
      9 C11         -0.0840    21.3030   -26.2940 cc         1 A1I       0.258900
     10 N2          -0.3260    20.9160   -27.5290 nd         1 A1I      -0.519800
     11 C            2.4500    20.8470   -22.6200 ca         1 A1I      -0.112000
     12 C8          -2.4250    21.1310   -21.9640 ca         1 A1I       0.353900
     13 N           -1.4100    21.2400   -21.1500 nb         1 A1I      -0.662000
     14 C3          -0.1670    21.1310   -21.6770 ca         1 A1I       0.267000
     15 C1           2.2130    21.0990   -21.2550 ca         1 A1I      -0.102000
     16 H1          -1.6690    19.5790   -28.2520 hn         1 A1I       0.374000
     17 H3           1.6070    20.5410   -24.5400 ha         1 A1I       0.121000
     18 H4          -3.2000    20.8970   -23.9570 ha         1 A1I       0.120000
     19 H5          -2.5130    19.1560   -25.9160 h4         1 A1I       0.159000
     20 H6           0.6730    22.0470   -26.0950 h4         1 A1I       0.044100
     21 H7           3.4650    20.7180   -22.9740 ha         1 A1I       0.114000
     22 H8          -3.4140    21.2140   -21.5260 h4         1 A1I       0.017100
     23 H9           3.0480    21.1740   -20.5700 ha         1 A1I       0.116000
     24 H2           0.7310    21.4080   -19.7450 ha         1 A1I       0.130000
@<TRIPOS>BOND
     1     1     8 1   
     2     1    10 1   
     3     1    16 1   
     4     2    14 ar  
     5     2    15 ar  
     6     2    24 1   
     7     3     4 ar  
     8     3     5 ar  
     9     3    14 ar  
    10     4    11 ar  
    11     4    17 1   
    12     5     6 ar  
    13     5     7 1   
    14     6    12 ar  
    15     6    18 1   
    16     7     8 2   
    17     7     9 1   
    18     8    19 1   
    19     9    10 2   
    20     9    20 1   
    21    11    15 ar  
    22    11    21 1   
    23    12    13 ar  
    24    12    22 1   
    25    13    14 ar  
    26    15    23 1   
@<TRIPOS>SUBSTRUCTURE
     1 A1I         1 TEMP              0 ****  ****    0 ROOT
