@<TRIPOS>MOLECULE
A1I
   30    32     1     0     0
SMALL
abcg2


@<TRIPOS>ATOM
      1 N1          20.8090   -20.1580    -0.5790 na         1 A1I      -0.006200
      2 C2          20.5950   -21.3460    -1.1690 cc         1 A1I      -0.124300
      3 C3          20.5650   -21.5230    -2.6440 c3         1 A1I      -0.032800
      4 C4          20.4250   -21.9310     2.4580 c3         1 A1I      -0.119400
      5 C5          20.1120   -23.6740    -0.2750 ca         1 A1I       0.044000
      6 C6          19.0140   -24.0720    -1.0040 ca         1 A1I      -0.108000
      7 C7          18.6780   -25.4300    -1.1660 ca         1 A1I      -0.104000
      8 C8          19.4420   -26.4030    -0.5860 ca         1 A1I      -0.097000
      9 C9          20.5850   -26.0460     0.1620 ca         1 A1I      -0.082000
     10 C10         20.9350   -24.6790     0.3130 ca         1 A1I       0.277000
     11 C11         22.7990   -25.2250     1.5250 ca         1 A1I       0.346900
     12 C12         22.5290   -26.6060     1.4500 ca         1 A1I      -0.167000
     13 C13         21.4220   -27.0120     0.7630 ca         1 A1I      -0.064000
     14 C1          20.5510   -21.4770     1.0460 cd         1 A1I       0.298300
     15 N           20.7800   -20.2110     0.7520 nc         1 A1I      -0.529800
     16 C           20.4260   -22.2500    -0.1350 cd         1 A1I      -0.153000
     17 N2          22.0470   -24.3030     0.9870 nb         1 A1I      -0.650000
     18 H1          20.9870   -19.2800    -1.0400 hn         1 A1I       0.368000
     19 H2          21.2910   -20.8770    -3.1380 hc         1 A1I       0.051367
     20 H3          20.7950   -22.5540    -2.9080 hc         1 A1I       0.051367
     21 H4          19.5820   -21.2910    -3.0570 hc         1 A1I       0.051367
     22 H5          20.2550   -21.0850     3.1230 hc         1 A1I       0.048367
     23 H6          19.5940   -22.6280     2.5740 hc         1 A1I       0.048367
     24 H7          21.3250   -22.4490     2.7890 hc         1 A1I       0.048367
     25 H8          18.3780   -23.3190    -1.4520 ha         1 A1I       0.116000
     26 H9          17.8020   -25.6930    -1.7440 ha         1 A1I       0.115000
     27 H10         19.1860   -27.4500    -0.6950 ha         1 A1I       0.114000
     28 H11         23.6830   -24.8830     2.0540 h4         1 A1I       0.018100
     29 H12         23.1960   -27.3140     1.9230 ha         1 A1I       0.123000
     30 H13         21.1750   -28.0630     0.6680 ha         1 A1I       0.117000
@<TRIPOS>BOND
     1     1     2 1   
     2     1    15 1   
     3     1    18 1   
     4     2     3 1   
     5     2    16 2   
     6     3    19 1   
     7     3    20 1   
     8     3    21 1   
     9     4    14 1   
    10     4    22 1   
    11     4    23 1   
    12     4    24 1   
    13     5     6 ar  
    14     5    10 ar  
    15     5    16 1   
    16     6     7 ar  
    17     6    25 1   
    18     7     8 ar  
    19     7    26 1   
    20     8     9 ar  
    21     8    27 1   
    22     9    10 ar  
    23     9    13 ar  
    24    10    17 ar  
    25    11    12 ar  
    26    11    17 ar  
    27    11    28 1   
    28    12    13 ar  
    29    12    29 1   
    30    13    30 1   
    31    14    15 2   
    32    14    16 1   
@<TRIPOS>SUBSTRUCTURE
     1 A1I         1 TEMP              0 ****  ****    0 ROOT
