@<TRIPOS>MOLECULE
A1I
   47    51     1     0     0
SMALL
abcg2


@<TRIPOS>ATOM
      1 C4           0.9700   -68.0150    53.3710 c6         1 A1I       0.111300
      2 C5          -0.3430   -67.5650    54.0460 c6         1 A1I      -0.106900
      3 C6          -1.4890   -68.5150    53.7120 c6         1 A1I       0.172300
      4 C3           1.9190   -69.4820    55.2010 ca         1 A1I       0.157500
      5 C2           3.1610   -69.5350    55.8420 ca         1 A1I      -0.383900
      6 C1           3.3240   -70.5920    56.7690 ca         1 A1I       0.455900
      7 N1           4.4640   -70.8380    57.4160 nv         1 A1I      -1.069900
      8 N2           1.9820   -68.4760    54.3100 na         1 A1I      -0.018100
      9 C8          -0.5180   -68.6120    51.4780 c6         1 A1I       0.172300
     10 C9           0.6970   -69.0530    52.2790 c6         1 A1I      -0.106900
     11 C10          3.9130   -68.4800    55.2530 cc         1 A1I       0.437500
     12 C11          5.2810   -68.0250    55.5230 ca         1 A1I      -0.083900
     13 C12          5.7180   -67.8600    56.8300 ca         1 A1I      -0.126000
     14 C13          7.0120   -67.3870    57.0290 ca         1 A1I      -0.057200
     15 C14          8.9330   -66.6570    57.8880 cc         1 A1I      -0.159100
     16 C15          9.0970   -66.6060    56.5340 cd         1 A1I      -0.240200
     17 N3          -1.7360   -68.6510    52.2800 n3         1 A1I      -0.729600
     18 N4           3.1830   -67.8770    54.3420 nd         1 A1I      -0.520100
     19 N5           7.6850   -67.1240    58.1860 na         1 A1I      -0.225700
     20 C16          7.8750   -67.0680    55.9570 ca         1 A1I      -0.091800
     21 C17          7.4110   -67.2380    54.6480 ca         1 A1I      -0.063000
     22 C18          6.1330   -67.7090    54.4430 ca         1 A1I      -0.113000
     23 N6           0.8790   -70.2900    55.4340 nb         1 A1I      -0.233000
     24 C19          1.1460   -71.1930    56.3540 ca         1 A1I       0.193900
     25 N7           2.2830   -71.3930    57.0160 nb         1 A1I      -0.315000
     26 H1           1.4320   -67.1490    52.8970 h1         1 A1I       0.075700
     27 H2          -0.2190   -67.4920    55.1280 hc         1 A1I       0.060950
     28 H3          -0.5860   -66.5590    53.6990 hc         1 A1I       0.060950
     29 H4          -2.4080   -68.1730    54.1910 h1         1 A1I       0.048200
     30 H5          -1.2670   -69.4940    54.1430 h1         1 A1I       0.048200
     31 H6           4.5310   -71.6580    57.9950 hn         1 A1I       0.502500
     32 H7           5.3180   -70.3640    57.1780 hn         1 A1I       0.502500
     33 H8          -3.6630   -67.8400    52.3090 h1         1 A1I       0.027700
     34 H9          -2.4180   -66.6720    51.8270 h1         1 A1I       0.027700
     35 H10         -2.9210   -67.9490    50.7170 h1         1 A1I       0.027700
     36 H11         -0.3200   -67.5950    51.0980 h1         1 A1I       0.048200
     37 H12         -0.6380   -69.2460    50.5950 h1         1 A1I       0.048200
     38 H13          0.5270   -70.0430    52.7090 hc         1 A1I       0.060950
     39 H14          1.5640   -69.1340    51.6220 hc         1 A1I       0.060950
     40 H15          5.0620   -68.0560    57.6700 ha         1 A1I       0.121000
     41 H16          9.6190   -66.3920    58.6770 h4         1 A1I       0.213000
     42 H17          9.9810   -66.2760    56.0120 ha         1 A1I       0.207000
     43 H19          7.3230   -67.2540    59.1170 hn         1 A1I       0.350000
     44 H20          8.0470   -67.0050    53.8030 ha         1 A1I       0.118000
     45 H21          5.7700   -67.8520    53.4330 ha         1 A1I       0.124000
     46 H22          0.3390   -71.8760    56.6020 h5         1 A1I       0.045100
     47 C7          -2.7220   -67.7290    51.7680 c3         1 A1I       0.158100
@<TRIPOS>BOND
     1     1     2 1   
     2     1     8 1   
     3     1    10 1   
     4     1    26 1   
     5     2     3 1   
     6     2    27 1   
     7     2    28 1   
     8     3    17 1   
     9     3    29 1   
    10     3    30 1   
    11     4     5 ar  
    12     4     8 1   
    13     4    23 ar  
    14     5     6 ar  
    15     5    11 1   
    16     6     7 1   
    17     6    25 ar  
    18     7    31 1   
    19     7    32 1   
    20     8    18 1   
    21     9    10 1   
    22     9    17 1   
    23     9    36 1   
    24     9    37 1   
    25    10    38 1   
    26    10    39 1   
    27    11    12 1   
    28    11    18 2   
    29    12    13 ar  
    30    12    22 ar  
    31    13    14 ar  
    32    13    40 1   
    33    14    19 1   
    34    14    20 ar  
    35    15    16 2   
    36    15    19 1   
    37    15    41 1   
    38    16    20 1   
    39    16    42 1   
    40    17    47 1   
    41    19    43 1   
    42    20    21 ar  
    43    21    22 ar  
    44    21    44 1   
    45    22    45 1   
    46    23    24 ar  
    47    24    25 ar  
    48    24    46 1   
    49    33    47 1   
    50    34    47 1   
    51    35    47 1   
@<TRIPOS>SUBSTRUCTURE
     1 A1I         1 TEMP              0 ****  ****    0 ROOT
