@<TRIPOS>MOLECULE
A1I
   59    62     1     0     0
SMALL
abcg2


@<TRIPOS>ATOM
      1 C10          7.3040     0.0030    19.1710 ca         1 A1I       0.421900
      2 N12          6.7970    -0.2900    20.3790 nb         1 A1I      -0.359000
      3 C13          7.2650     0.4140    21.3800 ca         1 A1I       0.376300
      4 C15          5.9100    -0.9060    22.7910 c3         1 A1I       0.167600
      5 C17          4.0100     0.6840    22.4040 ca         1 A1I      -0.061000
      6 C21          2.3560    -1.3250    21.4640 ca         1 A1I      -0.096000
      7 C22          3.6680    -1.6090    21.8170 ca         1 A1I       0.055800
      8 C28          5.1050    -3.3990    20.8710 cc         1 A1I      -0.154000
      9 N01         14.5550     4.3030    20.1090 n8         1 A1I      -0.997200
     10 C02         14.3080     4.7940    18.7640 c3         1 A1I       0.015500
     11 C03         12.9030     5.4130    18.6870 c3         1 A1I      -0.030100
     12 C04         11.8100     4.4480    19.0340 ca         1 A1I       0.009700
     13 C05         11.3720     3.5120    18.0980 ca         1 A1I      -0.125500
     14 C06         10.3720     2.6060    18.4020 ca         1 A1I      -0.070000
     15 C07          9.7710     2.5960    19.6630 cp         1 A1I      -0.211500
     16 C08          8.7100     1.6130    19.9650 cp         1 A1I       0.278500
     17 N09          8.2390     0.9160    18.9300 nb         1 A1I      -0.276000
     18 N11          6.8060    -0.6660    18.1200 nv         1 A1I      -1.075900
     19 O14          6.7950     0.1760    22.6140 os         1 A1I      -0.449300
     20 C16          4.5110    -0.6100    22.3040 ca         1 A1I      -0.105300
     21 C18          2.7070     0.9850    22.0480 ca         1 A1I      -0.102000
     22 C19          1.8840    -0.0310    21.5900 ca         1 A1I       0.133000
     23 CL20         0.2510     0.3230    21.1500 cl         1 A1I      -0.193000
     24 N23          4.1090    -2.9420    21.6650 na         1 A1I       0.203000
     25 N24          3.4580    -3.9370    22.2810 nc         1 A1I      -0.508800
     26 C25          4.0540    -5.0470    21.8920 cd         1 A1I       0.255300
     27 C27          5.1080    -4.7610    20.9950 cd         1 A1I      -0.232000
     28 C29          5.8990    -1.1600    24.2970 c3         1 A1I       0.307000
     29 F30          5.0330    -2.1320    24.5900 f          1 A1I      -0.104333
     30 F31          5.5430    -0.0790    24.9940 f          1 A1I      -0.104333
     31 F32          7.1000    -1.5420    24.7370 f          1 A1I      -0.104333
     32 C33          8.2340     1.4040    21.2530 ca         1 A1I      -0.290000
     33 C34         10.2050     3.5340    20.6010 ca         1 A1I      -0.070000
     34 C35         11.2060     4.4400    20.2890 ca         1 A1I      -0.125500
     35 C36         15.3400     5.8170    18.2120 c          1 A1I       0.694000
     36 O37         16.1890     6.2610    19.0090 o          1 A1I      -0.729500
     37 O38         15.2160     6.1110    17.0050 o          1 A1I      -0.729500
     38 H1           6.3110    -1.8070    22.3210 h1         1 A1I       0.102700
     39 H2           4.6380     1.4850    22.7700 ha         1 A1I       0.142000
     40 H3           1.7190    -2.1140    21.0870 ha         1 A1I       0.147000
     41 H4           2.7940    -6.2840    23.0940 hc         1 A1I       0.046033
     42 H5           3.2740    -7.0110    21.5590 hc         1 A1I       0.046033
     43 H6           4.4300    -6.9100    22.8760 hc         1 A1I       0.046033
     44 H9          14.6250     5.1020    20.7290 hn         1 A1I       0.383000
     45 H11         14.3190     3.9280    18.0900 h1         1 A1I       0.042700
     46 H12         12.7490     5.7880    17.6740 hc         1 A1I       0.055200
     47 H13         12.8600     6.2780    19.3580 hc         1 A1I       0.055200
     48 H14         11.8200     3.4970    17.1110 ha         1 A1I       0.119000
     49 H15         10.0500     1.8950    17.6540 ha         1 A1I       0.109000
     50 H16          7.2510    -0.5750    17.2230 hn         1 A1I       0.497000
     51 H17          6.1880    -1.4450    18.2610 hn         1 A1I       0.497000
     52 H18          2.3380     1.9980    22.1370 ha         1 A1I       0.136000
     53 H19          5.7690    -5.4590    20.5090 ha         1 A1I       0.145000
     54 H20          8.5980     1.9360    22.1190 ha         1 A1I       0.152000
     55 H21          9.7590     3.5780    21.5860 ha         1 A1I       0.109000
     56 H22         11.5160     5.1630    21.0340 ha         1 A1I       0.119000
     57 H7           5.7170    -2.7290    20.2890 h4         1 A1I       0.171000
     58 C26          3.6120    -6.3820    22.3830 c3         1 A1I      -0.117400
     59 H8          15.4770     3.8860    20.1340 hn         1 A1I       0.383000
@<TRIPOS>BOND
     1     1     2 ar  
     2     1    17 ar  
     3     1    18 1   
     4     2     3 ar  
     5     3    19 1   
     6     3    32 ar  
     7     4    19 1   
     8     4    20 1   
     9     4    28 1   
    10     4    38 1   
    11     5    20 ar  
    12     5    21 ar  
    13     5    39 1   
    14     6     7 ar  
    15     6    22 ar  
    16     6    40 1   
    17     7    20 ar  
    18     7    24 1   
    19     8    24 1   
    20     8    27 2   
    21     8    57 1   
    22     9    10 1   
    23     9    44 1   
    24     9    59 1   
    25    10    11 1   
    26    10    35 1   
    27    10    45 1   
    28    11    12 1   
    29    11    46 1   
    30    11    47 1   
    31    12    13 ar  
    32    12    34 ar  
    33    13    14 ar  
    34    13    48 1   
    35    14    15 ar  
    36    14    49 1   
    37    15    16 1   
    38    15    33 ar  
    39    16    17 ar  
    40    16    32 ar  
    41    18    50 1   
    42    18    51 1   
    43    21    22 ar  
    44    21    52 1   
    45    22    23 1   
    46    24    25 1   
    47    25    26 2   
    48    26    27 1   
    49    26    58 1   
    50    27    53 1   
    51    28    29 1   
    52    28    30 1   
    53    28    31 1   
    54    32    54 1   
    55    33    34 ar  
    56    33    55 1   
    57    34    56 1   
    58    35    36 1   
    59    35    37 1   
    60    41    58 1   
    61    42    58 1   
    62    43    58 1   
@<TRIPOS>SUBSTRUCTURE
     1 A1I         1 TEMP              0 ****  ****    0 ROOT
