@<TRIPOS>MOLECULE
A1I
   42    44     1     0     0
SMALL
abcg2


@<TRIPOS>ATOM
      1 C01        -37.8130    -9.3200    -7.2030 c3         1 A1I       0.144100
      2 N02        -37.1530   -10.2510    -8.0950 n7         1 A1I      -0.856400
      3 C03        -36.2340   -11.1290    -7.4000 c3         1 A1I       0.156800
      4 C04        -35.5420   -12.0840    -8.3610 c3         1 A1I      -0.092400
      5 C05        -34.5800   -12.9980    -7.6160 c3         1 A1I       0.220800
      6 N06        -33.9360   -13.9600    -8.4970 nh         1 A1I      -0.849200
      7 C07        -33.2220   -13.4440    -9.6070 ca         1 A1I       0.280000
      8 C08        -32.4100   -12.3190    -9.4880 ca         1 A1I      -0.133000
      9 C09        -31.7380   -11.8210   -10.5960 ca         1 A1I      -0.098000
     10 C10        -31.8610   -12.4540   -11.8250 ca         1 A1I      -0.117000
     11 C11        -32.6700   -13.5760   -11.9400 ca         1 A1I      -0.097000
     12 C12        -33.3670   -14.0720   -10.8430 ca         1 A1I      -0.081300
     13 C13        -34.2370   -15.2840   -10.9310 c3         1 A1I      -0.021100
     14 C14        -33.6010   -16.4710   -10.2200 c3         1 A1I      -0.019100
     15 C15        -33.3430   -16.3430    -8.7340 ca         1 A1I      -0.092300
     16 C16        -33.5060   -15.1830    -7.9550 ca         1 A1I       0.326000
     17 C17        -33.2450   -15.2500    -6.5790 ca         1 A1I      -0.162000
     18 C18        -32.8560   -16.4350    -5.9870 ca         1 A1I       0.142000
     19 C19        -32.6830   -17.5860    -6.7330 ca         1 A1I      -0.125000
     20 C20        -32.9260   -17.5080    -8.0930 ca         1 A1I      -0.090000
     21 CL21       -32.5610   -16.4650    -4.2760 cl         1 A1I      -0.210000
     22 H1         -38.5370    -8.7240    -7.7580 h1         1 A1I       0.029367
     23 H2         -38.3410    -9.7940    -6.3640 h1         1 A1I       0.029367
     24 H3         -37.0800    -8.6310    -6.7770 h1         1 A1I       0.029367
     25 H4         -37.8550   -10.8140    -8.5590 hn         1 A1I       0.406000
     26 H6         -35.4800   -10.5080    -6.9050 h1         1 A1I       0.026700
     27 H7         -36.7240   -11.7060    -6.5970 h1         1 A1I       0.026700
     28 H8         -36.2860   -12.7010    -8.8760 hc         1 A1I       0.059700
     29 H9         -35.0260   -11.5010    -9.1270 hc         1 A1I       0.059700
     30 H10        -35.1550   -13.5630    -6.8800 h1         1 A1I       0.037700
     31 H11        -33.8590   -12.3960    -7.0460 h1         1 A1I       0.037700
     32 H12        -32.3000   -11.8230    -8.5320 ha         1 A1I       0.117000
     33 H13        -31.1110   -10.9440   -10.4930 ha         1 A1I       0.114000
     34 H14        -31.3350   -12.0730   -12.6910 ha         1 A1I       0.114000
     35 H15        -32.7760   -14.0690   -12.8990 ha         1 A1I       0.112000
     36 H16        -35.2210   -15.0730   -10.5040 hc         1 A1I       0.054200
     37 H17        -34.3950   -15.5560   -11.9760 hc         1 A1I       0.054200
     38 H18        -34.2320   -17.3510   -10.3720 hc         1 A1I       0.047700
     39 H19        -32.6530   -16.7000   -10.7160 hc         1 A1I       0.047700
     40 H20        -33.3300   -14.3640    -5.9660 ha         1 A1I       0.128000
     41 H21        -32.3790   -18.5170    -6.2740 ha         1 A1I       0.131000
     42 H22        -32.8080   -18.4060    -8.6890 ha         1 A1I       0.113000
@<TRIPOS>BOND
     1     1     2 1   
     2     1    22 1   
     3     1    23 1   
     4     1    24 1   
     5     2     3 1   
     6     2    25 1   
     7     3     4 1   
     8     3    26 1   
     9     3    27 1   
    10     4     5 1   
    11     4    28 1   
    12     4    29 1   
    13     5     6 1   
    14     5    30 1   
    15     5    31 1   
    16     6     7 1   
    17     6    16 1   
    18     7     8 ar  
    19     7    12 ar  
    20     8     9 ar  
    21     8    32 1   
    22     9    10 ar  
    23     9    33 1   
    24    10    11 ar  
    25    10    34 1   
    26    11    12 ar  
    27    11    35 1   
    28    12    13 1   
    29    13    14 1   
    30    13    36 1   
    31    13    37 1   
    32    14    15 1   
    33    14    38 1   
    34    14    39 1   
    35    15    16 ar  
    36    15    20 ar  
    37    16    17 ar  
    38    17    18 ar  
    39    17    40 1   
    40    18    19 ar  
    41    18    21 1   
    42    19    20 ar  
    43    19    41 1   
    44    20    42 1   
@<TRIPOS>SUBSTRUCTURE
     1 A1I         1 TEMP              0 ****  ****    0 ROOT
