@<TRIPOS>MOLECULE
A1I
   75    79     1     0     0
SMALL
abcg2


@<TRIPOS>ATOM
      1 N1          22.2730    30.3430    -6.8400 nc         1 A1I      -0.332000
      2 C2          24.3320    30.1590    -7.5900 cd         1 A1I      -0.226000
      3 N3          25.0260    33.1690    -0.7640 nh         1 A1I      -0.774300
      4 C4          23.9930    30.7670    -5.1180 ca         1 A1I      -0.140500
      5 O5          21.1210    27.5240     3.5790 o          1 A1I      -0.951833
      6 C6          23.4640    31.6080    -2.9160 ca         1 A1I      -0.092000
      7 N7          20.9510    32.6050     1.4070 na         1 A1I      -0.297300
      8 C12         25.7030    34.7050    -2.6320 c3         1 A1I      -0.103400
      9 C13         26.8020    35.6590    -3.0780 c3         1 A1I      -0.082100
     10 C14         23.9390    33.6310    -0.1290 ca         1 A1I       0.427900
     11 C15         22.7940    35.4640     0.6530 ca         1 A1I       0.244000
     12 C16         21.8470    33.5430     1.0020 ca         1 A1I       0.063500
     13 C17         22.8840    32.8430     0.3950 ca         1 A1I      -0.056600
     14 C18         21.4660    31.3880     1.0460 cc         1 A1I       0.519700
     15 C21         17.8490    29.8950     1.8690 c3         1 A1I       0.215600
     16 C22         18.8610    26.7600     2.2090 c3         1 A1I      -0.770400
     17 C23         17.9160    32.1720     0.7510 c5         1 A1I       0.130300
     18 C24         18.6310    33.4580     1.1420 c5         1 A1I       0.119300
     19 O4          21.3600    26.0850     1.4610 o          1 A1I      -0.951833
     20 P1          20.6700    27.2760     2.1370 p5         1 A1I       1.376500
     21 O6          20.6880    28.5420     1.2470 o          1 A1I      -0.951833
     22 P           17.6220    27.6230     3.2380 p5         1 A1I       1.439400
     23 O2          17.8260    27.3340     4.7030 o          1 A1I      -0.878000
     24 O3          16.2510    27.4140     2.6330 o          1 A1I      -0.878000
     25 O1          17.9840    29.2450     3.1060 os         1 A1I      -0.563400
     26 C20         17.9430    31.3870     2.0660 c5         1 A1I       0.133300
     27 O           19.1950    31.7430     2.6620 os         1 A1I      -0.369000
     28 O7          16.6430    32.4200     0.2350 oh         1 A1I      -0.719000
     29 O8          17.7260    34.2790     1.8260 oh         1 A1I      -0.694000
     30 C19         19.7030    32.9080     2.1000 c5         1 A1I       0.283300
     31 N5          21.7500    34.8640     1.1630 nb         1 A1I      -0.198000
     32 CL          22.8010    37.1970     0.8070 cl         1 A1I      -0.219000
     33 N4          23.8370    34.9620     0.0360 nb         1 A1I      -0.323000
     34 N6          22.6160    31.4990     0.4400 nd         1 A1I      -0.603100
     35 C11         26.0310    34.0930    -1.2750 c3         1 A1I       0.240800
     36 C7          24.7800    31.4190    -2.4970 ca         1 A1I      -0.067300
     37 C5          23.0760    31.2890    -4.2040 ca         1 A1I      -0.091000
     38 C8          25.6930    30.9020    -3.4080 ca         1 A1I      -0.092000
     39 C9          25.3080    30.5770    -4.7010 ca         1 A1I      -0.091000
     40 C3          23.5740    30.4310    -6.4750 cc         1 A1I       0.303500
     41 N2          22.1960    30.0390    -8.0860 nd         1 A1I      -0.214800
     42 N           23.4280    29.9190    -8.5530 na         1 A1I       0.101800
     43 C1          23.6530    29.6550    -9.9570 c3         1 A1I       0.052600
     44 C           23.4840    30.9330   -10.7610 c3         1 A1I       0.163600
     45 F           23.7060    30.6400   -12.0970 f          1 A1I      -0.274000
     46 H1          25.3940    30.1220    -7.7660 h4         1 A1I       0.160000
     47 H3          22.7270    32.0080    -2.2320 ha         1 A1I       0.125000
     48 H4          24.6380    31.1580    -0.3820 h1         1 A1I       0.092700
     49 H5          26.2550    31.5160    -0.9520 h1         1 A1I       0.092700
     50 H6          24.7500    35.2350    -2.5740 hc         1 A1I       0.055200
     51 H7          25.5790    33.9130    -3.3730 hc         1 A1I       0.055200
     52 H8          26.5750    36.0950    -4.0510 hc         1 A1I       0.020033
     53 H9          26.9270    36.4790    -2.3690 hc         1 A1I       0.020033
     54 H10         27.7620    35.1460    -3.1630 hc         1 A1I       0.020033
     55 H11         20.9890    30.4250     1.2550 h5         1 A1I       0.225800
     56 H12         16.8730    29.6910     1.4090 h1         1 A1I       0.039700
     57 H13         18.6280    29.5630     1.1760 h1         1 A1I       0.039700
     58 H14         18.4860    26.7340     1.1810 hc         1 A1I       0.024700
     59 H15         18.8230    25.7200     2.5540 hc         1 A1I       0.024700
     60 H16         18.5510    31.6490     0.0210 h1         1 A1I       0.062700
     61 H17         19.0800    33.9700     0.2830 h1         1 A1I       0.044700
     62 H20         17.1280    31.7290     2.7180 h1         1 A1I       0.057700
     63 H21         16.3260    31.6180    -0.1910 ho         1 A1I       0.510000
     64 H22         18.1700    35.1030     2.0510 ho         1 A1I       0.485000
     65 H23         19.9450    33.6420     2.8760 h2         1 A1I       0.069700
     66 H24         26.9660    33.5340    -1.3430 h1         1 A1I       0.043200
     67 H25         26.1880    34.8840    -0.5420 h1         1 A1I       0.043200
     68 H26         22.0480    31.4480    -4.5040 ha         1 A1I       0.109500
     69 H27         26.7230    30.7490    -3.1060 ha         1 A1I       0.125000
     70 H28         26.0430    30.1670    -5.3830 ha         1 A1I       0.109500
     71 H29         22.9440    28.8950   -10.2820 h1         1 A1I       0.075700
     72 H30         24.6600    29.2570   -10.0690 h1         1 A1I       0.075700
     73 H31         24.2020    31.6910   -10.4440 h1         1 A1I       0.060700
     74 H32         22.4740    31.3290   -10.6520 h1         1 A1I       0.060700
     75 C10         25.2010    31.7630    -1.0890 c3         1 A1I       0.259100
@<TRIPOS>BOND
     1     1    40 1   
     2     1    41 2   
     3     2    40 2   
     4     2    42 1   
     5     2    46 1   
     6     3    10 1   
     7     3    35 1   
     8     3    75 1   
     9     4    37 ar  
    10     4    39 ar  
    11     4    40 1   
    12     5    20 1   
    13     6    36 ar  
    14     6    37 ar  
    15     6    47 1   
    16     7    12 1   
    17     7    14 1   
    18     7    30 1   
    19     8     9 1   
    20     8    35 1   
    21     8    50 1   
    22     8    51 1   
    23     9    52 1   
    24     9    53 1   
    25     9    54 1   
    26    10    13 ar  
    27    10    33 ar  
    28    11    31 ar  
    29    11    32 1   
    30    11    33 ar  
    31    12    13 ar  
    32    12    31 ar  
    33    13    34 1   
    34    14    34 2   
    35    14    55 1   
    36    15    25 1   
    37    15    26 1   
    38    15    56 1   
    39    15    57 1   
    40    16    20 1   
    41    16    22 1   
    42    16    58 1   
    43    16    59 1   
    44    17    18 1   
    45    17    26 1   
    46    17    28 1   
    47    17    60 1   
    48    18    29 1   
    49    18    30 1   
    50    18    61 1   
    51    19    20 1   
    52    20    21 1   
    53    22    23 1   
    54    22    24 1   
    55    22    25 1   
    56    26    27 1   
    57    26    62 1   
    58    27    30 1   
    59    28    63 1   
    60    29    64 1   
    61    30    65 1   
    62    35    66 1   
    63    35    67 1   
    64    36    38 ar  
    65    36    75 1   
    66    37    68 1   
    67    38    39 ar  
    68    38    69 1   
    69    39    70 1   
    70    41    42 1   
    71    42    43 1   
    72    43    44 1   
    73    43    71 1   
    74    43    72 1   
    75    44    45 1   
    76    44    73 1   
    77    44    74 1   
    78    48    75 1   
    79    49    75 1   
@<TRIPOS>SUBSTRUCTURE
     1 A1I         1 TEMP              0 ****  ****    0 ROOT
