@<TRIPOS>MOLECULE
A1I
   72    77     1     0     0
SMALL
abcg2


@<TRIPOS>ATOM
      1 N1          -2.4330     1.1070   -26.4210 ns         1 A1I      -0.494900
      2 N3          -1.2010    -2.8160   -25.9220 nh         1 A1I      -0.472400
      3 C4           0.8040     0.1880   -26.6190 ca         1 A1I      -0.091500
      4 C5           2.0920     0.5610   -26.2610 ca         1 A1I      -0.115000
      5 C6           2.3370     1.0990   -25.0050 ca         1 A1I      -0.102000
      6 C7           1.2860     1.2700   -24.1140 ca         1 A1I      -0.115000
      7 C8          -0.0010     0.8930   -24.4730 ca         1 A1I      -0.091500
      8 C10          0.1740    -2.9740   -25.6150 ca         1 A1I       0.240000
      9 C13          2.9160    -3.2720   -25.1030 ca         1 A1I      -0.119000
     10 C15          1.0800    -3.2330   -26.6470 ca         1 A1I      -0.025900
     11 C17         -2.3950    -4.4830   -24.7610 c5         1 A1I      -0.128400
     12 C20         -6.6530     2.4320   -25.9670 ca         1 A1I      -0.182300
     13 C21         -7.4780     3.5450   -25.9040 ca         1 A1I      -0.032000
     14 C22         -8.1990     3.8720   -24.7610 ca         1 A1I      -0.205300
     15 C24         -7.6840     6.1250   -23.0280 c6         1 A1I       0.161600
     16 C26         -9.5560     4.5770   -22.3650 c6         1 A1I       0.199500
     17 C28         -8.0970     3.0560   -23.6240 ca         1 A1I       0.338000
     18 C1          -3.7110     0.9490   -26.8830 c          1 A1I       0.649100
     19 C11          0.6810    -2.8440   -24.3240 ca         1 A1I      -0.122000
     20 C12          2.0370    -2.9830   -24.0710 ca         1 A1I      -0.084000
     21 C14          2.4340    -3.3980   -26.3970 ca         1 A1I      -0.077000
     22 C16         -1.9350    -4.0700   -26.1570 c5         1 A1I       0.150800
     23 C18         -2.6780    -3.1440   -24.0830 c5         1 A1I       0.081000
     24 C19         -5.8600     2.1120   -27.2080 c3         1 A1I       0.165300
     25 C2          -1.6510    -0.0660   -26.1310 c3         1 A1I       0.105000
     26 C23         -9.0460     5.1160   -24.6920 c6         1 A1I       0.221600
     27 C25         -8.6660     5.7590   -21.9250 c6         1 A1I       0.108300
     28 C27        -10.1890     4.8990   -23.7120 c6         1 A1I      -0.107400
     29 C29         -7.2660     1.9270   -23.6800 ca         1 A1I      -0.192000
     30 C3          -0.2510     0.3410   -25.7270 ca         1 A1I      -0.098300
     31 C30         -6.5580     1.6310   -24.8270 ca         1 A1I      -0.037000
     32 C9          -2.3070    -0.8920   -25.0170 c          1 A1I       0.613100
     33 N2          -1.9420    -2.1900   -24.9220 n          1 A1I      -0.288200
     34 N4          -4.4340     2.0940   -26.9650 ns         1 A1I      -0.510900
     35 N5          -8.8120     3.3460   -22.4920 nu         1 A1I      -0.968200
     36 O1          -4.1320    -0.1470   -27.2370 o          1 A1I      -0.645100
     37 O2          -3.0770    -0.3990   -24.2120 o          1 A1I      -0.606100
     38 O3          -8.2870     6.2560   -24.2970 os         1 A1I      -0.437000
     39 O4          -9.4470     6.8980   -21.6370 oh         1 A1I      -0.702000
     40 BR1          0.4890    -3.2950   -28.4410 br         1 A1I      -0.089100
     41 H1          -2.2030     1.9440   -25.9080 hn         1 A1I       0.308500
     42 H3           0.6210    -0.2300   -27.6010 ha         1 A1I       0.124000
     43 H4           2.9050     0.4260   -26.9630 ha         1 A1I       0.113500
     44 H5           3.3420     1.3860   -24.7220 ha         1 A1I       0.112000
     45 H6           1.4670     1.6930   -23.1350 ha         1 A1I       0.113500
     46 H7          -0.8070     1.0280   -23.7620 ha         1 A1I       0.124000
     47 H10          3.9740    -3.3890   -24.9120 ha         1 A1I       0.119000
     48 H14         -3.2750    -5.1240   -24.7850 hc         1 A1I       0.061200
     49 H15         -1.6010    -5.0240   -24.2440 hc         1 A1I       0.061200
     50 H21         -7.5660     4.1910   -26.7720 ha         1 A1I       0.110000
     51 H23         -7.2200     7.0870   -22.8010 h1         1 A1I       0.058200
     52 H27        -10.3280     4.4180   -21.6060 h1         1 A1I       0.055700
     53 H8           0.0120    -2.6140   -23.5060 ha         1 A1I       0.129000
     54 H9           2.4020    -2.8720   -23.0580 ha         1 A1I       0.117000
     55 H11          3.1180    -3.6030   -27.2110 ha         1 A1I       0.129000
     56 H12         -2.7800    -3.8610   -26.8140 h1         1 A1I       0.080200
     57 H13         -1.3030    -4.8150   -26.6340 h1         1 A1I       0.080200
     58 H16         -3.7390    -2.8930   -24.0960 h1         1 A1I       0.063700
     59 H17         -2.3340    -3.1130   -23.0490 h1         1 A1I       0.063700
     60 H19         -6.0860     2.8460   -27.9840 h1         1 A1I       0.064700
     61 H20         -6.1380     1.1390   -27.6110 h1         1 A1I       0.064700
     62 H2          -1.5850    -0.6820   -27.0280 h1         1 A1I       0.115700
     63 H22         -9.4270     5.3580   -25.6870 h1         1 A1I       0.082700
     64 H25         -8.0810     5.4500   -21.0460 h1         1 A1I       0.032700
     65 H28        -10.8250     4.0750   -24.0440 hc         1 A1I       0.068700
     66 H29        -10.8130     5.7900   -23.6430 hc         1 A1I       0.068700
     67 H31         -7.1770     1.2880   -22.8080 ha         1 A1I       0.114000
     68 H32         -5.9190     0.7550   -24.8310 ha         1 A1I       0.131000
     69 H18         -4.0400     2.9430   -26.5890 hn         1 A1I       0.304500
     70 H30         -8.5230     2.8960   -21.6390 hn         1 A1I       0.480000
     71 H26        -10.0650     6.6760   -20.9330 ho         1 A1I       0.498000
     72 H24         -6.8770     5.3820   -23.0460 h1         1 A1I       0.058200
@<TRIPOS>BOND
     1     1    18 1   
     2     1    25 1   
     3     1    41 1   
     4     2     8 1   
     5     2    22 1   
     6     2    33 1   
     7     3     4 ar  
     8     3    30 ar  
     9     3    42 1   
    10     4     5 ar  
    11     4    43 1   
    12     5     6 ar  
    13     5    44 1   
    14     6     7 ar  
    15     6    45 1   
    16     7    30 ar  
    17     7    46 1   
    18     8    10 ar  
    19     8    19 ar  
    20     9    20 ar  
    21     9    21 ar  
    22     9    47 1   
    23    10    21 ar  
    24    10    40 1   
    25    11    22 1   
    26    11    23 1   
    27    11    48 1   
    28    11    49 1   
    29    12    13 ar  
    30    12    24 1   
    31    12    31 ar  
    32    13    14 ar  
    33    13    50 1   
    34    14    17 ar  
    35    14    26 1   
    36    15    27 1   
    37    15    38 1   
    38    15    51 1   
    39    15    72 1   
    40    16    27 1   
    41    16    28 1   
    42    16    35 1   
    43    16    52 1   
    44    17    29 ar  
    45    17    35 1   
    46    18    34 1   
    47    18    36 2   
    48    19    20 ar  
    49    19    53 1   
    50    20    54 1   
    51    21    55 1   
    52    22    56 1   
    53    22    57 1   
    54    23    33 1   
    55    23    58 1   
    56    23    59 1   
    57    24    34 1   
    58    24    60 1   
    59    24    61 1   
    60    25    30 1   
    61    25    32 1   
    62    25    62 1   
    63    26    28 1   
    64    26    38 1   
    65    26    63 1   
    66    27    39 1   
    67    27    64 1   
    68    28    65 1   
    69    28    66 1   
    70    29    31 ar  
    71    29    67 1   
    72    31    68 1   
    73    32    33 1   
    74    32    37 2   
    75    34    69 1   
    76    35    70 1   
    77    39    71 1   
@<TRIPOS>SUBSTRUCTURE
     1 A1I         1 TEMP              0 ****  ****    0 ROOT
