@<TRIPOS>MOLECULE
A1I
   35    37     1     0     0
SMALL
abcg2


@<TRIPOS>ATOM
      1 C1           8.4000    10.4920    11.0700 ca         1 A1I      -0.006000
      2 C2           9.7630    10.3270    10.7600 ca         1 A1I      -0.218000
      3 C6          13.2440    10.7690    12.3880 ca         1 A1I      -0.090500
      4 C9          13.1710     8.1170    13.2040 ca         1 A1I      -0.114000
      5 C12         10.6130    13.7810     9.6780 ca         1 A1I      -0.095000
      6 C15          7.9180    14.1090    10.2880 ca         1 A1I      -0.073000
      7 O3           5.8920    12.8250    12.3580 o          1 A1I      -0.693533
      8 O            5.6210    10.4550    11.7680 o          1 A1I      -0.693533
      9 O2           5.3720    12.1840    10.0360 o          1 A1I      -0.693533
     10 C            7.7640    11.6930    10.9290 ca         1 A1I      -0.231500
     11 C16          8.4940    12.8260    10.4590 ca         1 A1I       0.069000
     12 C14          8.6600    15.1670     9.8350 ca         1 A1I      -0.124000
     13 C13         10.0210    15.0060     9.5270 ca         1 A1I      -0.139000
     14 C11          9.8710    12.6710    10.1420 ca         1 A1I      -0.074000
     15 C3          10.4900    11.3910    10.2940 ca         1 A1I       0.141100
     16 O1          11.7830    11.3420     9.9350 os         1 A1I      -0.351100
     17 C4          12.5050    10.1320    10.0620 c3         1 A1I       0.212900
     18 C5          12.8420     9.7850    11.4890 ca         1 A1I      -0.115300
     19 C10         12.8050     8.4600    11.9080 ca         1 A1I      -0.090500
     20 C8          13.5700     9.1030    14.0960 ca         1 A1I      -0.110000
     21 C7          13.6020    10.4300    13.6840 ca         1 A1I      -0.114000
     22 H1           7.8530     9.6310    11.4270 ha         1 A1I       0.136000
     23 H2          10.2030     9.3500    10.8960 ha         1 A1I       0.103000
     24 H3          13.2800    11.8070    12.0800 ha         1 A1I       0.117000
     25 H4          13.1380     7.0820    13.5160 ha         1 A1I       0.107500
     26 H5          11.6610    13.6650     9.4400 ha         1 A1I       0.104000
     27 H6           6.8780    14.2700    10.5220 ha         1 A1I       0.150000
     28 H7           8.1920    16.1350     9.7160 ha         1 A1I       0.100000
     29 H8          10.6000    15.8490     9.1730 ha         1 A1I       0.091000
     30 H9          11.9750     9.3040     9.5790 h1         1 A1I       0.052700
     31 H10         13.4220    10.2970     9.4950 h1         1 A1I       0.052700
     32 H11         12.4840     7.6880    11.2180 ha         1 A1I       0.117000
     33 H12         13.8520     8.8400    15.1070 ha         1 A1I       0.105000
     34 H13         13.9120    11.2030    14.3750 ha         1 A1I       0.107500
     35 S            6.0110    11.7980    11.3070 s6         1 A1I       1.259100
@<TRIPOS>BOND
     1     1     2 ar  
     2     1    10 ar  
     3     1    22 1   
     4     2    15 ar  
     5     2    23 1   
     6     3    18 ar  
     7     3    21 ar  
     8     3    24 1   
     9     4    19 ar  
    10     4    20 ar  
    11     4    25 1   
    12     5    13 ar  
    13     5    14 ar  
    14     5    26 1   
    15     6    11 ar  
    16     6    12 ar  
    17     6    27 1   
    18     7    35 1   
    19     8    35 1   
    20     9    35 1   
    21    10    11 ar  
    22    10    35 1   
    23    11    14 ar  
    24    12    13 ar  
    25    12    28 1   
    26    13    29 1   
    27    14    15 ar  
    28    15    16 1   
    29    16    17 1   
    30    17    18 1   
    31    17    30 1   
    32    17    31 1   
    33    18    19 ar  
    34    19    32 1   
    35    20    21 ar  
    36    20    33 1   
    37    21    34 1   
@<TRIPOS>SUBSTRUCTURE
     1 A1I         1 TEMP              0 ****  ****    0 ROOT
