@<TRIPOS>MOLECULE
A1I
   40    42     1     0     0
SMALL
abcg2


@<TRIPOS>ATOM
      1 C2          -5.4350    32.3490     1.6350 ca         1 A1I       0.135100
      2 C3          -6.7320    32.4930     2.0950 ca         1 A1I      -0.189000
      3 C4          -7.0200    32.4140     3.4600 ca         1 A1I      -0.112000
      4 C5          -6.0140    32.1910     4.3860 ca         1 A1I      -0.108300
      5 C10         -6.5320    33.4030    10.3570 ca         1 A1I      -0.120000
      6 C11         -5.6110    33.2780     9.3210 ca         1 A1I      -0.102000
      7 C12         -6.0680    32.9910     8.0450 ca         1 A1I      -0.083300
      8 C13         -5.2910    32.8220     6.7700 c5         1 A1I      -0.032600
      9 C6          -4.7070    32.0380     3.9110 ca         1 A1I      -0.164000
     10 CA          -4.3940    32.1150     2.5610 ca         1 A1I       0.245000
     11 C           -5.3700    31.8940    -1.9880 c          1 A1I       0.732000
     12 O           -6.0400    32.0900    -3.0200 o          1 A1I      -0.712500
     13 C05         -6.2850    32.0660     5.8620 c5         1 A1I      -0.001400
     14 C06         -7.6650    32.5480     6.3440 c5         1 A1I      -0.032600
     15 C07         -7.4300    32.8290     7.8010 ca         1 A1I      -0.083300
     16 C08         -8.3490    32.9560     8.8300 ca         1 A1I      -0.102000
     17 C09         -7.8910    33.2410    10.1130 ca         1 A1I      -0.120000
     18 CME         -6.3560    33.9820    -0.9030 c3         1 A1I      -0.094100
     19 CST         -5.9760    32.5220    -0.7070 c3         1 A1I       0.022300
     20 OET         -5.0350    32.3930     0.3490 os         1 A1I      -0.315100
     21 H3          -7.5470    32.6750     1.4070 ha         1 A1I       0.119000
     22 H4          -8.0480    32.5300     3.7760 ha         1 A1I       0.093000
     23 H101        -6.1880    33.6190    11.3600 ha         1 A1I       0.102000
     24 H111        -4.5510    33.3990     9.5150 ha         1 A1I       0.109000
     25 H132        -4.3490    32.2910     6.9080 hc         1 A1I       0.056950
     26 H131        -5.0480    33.8000     6.3400 hc         1 A1I       0.056950
     27 H6          -3.9010    31.8480     4.6110 ha         1 A1I       0.094000
     28 H051        -6.2090    31.0050     6.1340 hc         1 A1I       0.048700
     29 H061        -7.9550    33.4720     5.8300 hc         1 A1I       0.056950
     30 H062        -8.4590    31.8200     6.1630 hc         1 A1I       0.056950
     31 H081        -9.4090    32.8270     8.6450 ha         1 A1I       0.109000
     32 H091        -8.5980    33.3340    10.9280 ha         1 A1I       0.102000
     33 HM1         -7.1280    34.0730    -1.6650 hc         1 A1I       0.027367
     34 HM2         -6.7460    34.4280     0.0130 hc         1 A1I       0.027367
     35 HM3         -5.4950    34.5730    -1.2220 hc         1 A1I       0.027367
     36 HST         -6.8780    31.9420    -0.4660 h1         1 A1I       0.024700
     37 N           -3.0890    32.0190     2.1040 nv         1 A1I      -1.057000
     38 OXT         -4.3160    31.2490    -1.8760 o          1 A1I      -0.712500
     39 H           -2.4650    31.5390     2.7330 hn         1 A1I       0.447500
     40 H2          -2.9980    31.6680     1.1630 hn         1 A1I       0.447500
@<TRIPOS>BOND
     1     1     2 ar  
     2     1    10 ar  
     3     1    20 1   
     4     2     3 ar  
     5     2    21 1   
     6     3     4 ar  
     7     3    22 1   
     8     4     9 ar  
     9     4    13 1   
    10     5     6 ar  
    11     5    17 ar  
    12     5    23 1   
    13     6     7 ar  
    14     6    24 1   
    15     7     8 1   
    16     7    15 ar  
    17     8    13 1   
    18     8    25 1   
    19     8    26 1   
    20     9    10 ar  
    21     9    27 1   
    22    10    37 1   
    23    11    12 1   
    24    11    19 1   
    25    11    38 1   
    26    13    14 1   
    27    13    28 1   
    28    14    15 1   
    29    14    29 1   
    30    14    30 1   
    31    15    16 ar  
    32    16    17 ar  
    33    16    31 1   
    34    17    32 1   
    35    18    19 1   
    36    18    33 1   
    37    18    34 1   
    38    18    35 1   
    39    19    20 1   
    40    19    36 1   
    41    37    39 1   
    42    37    40 1   
@<TRIPOS>SUBSTRUCTURE
     1 A1I         1 TEMP              0 ****  ****    0 ROOT
