@<TRIPOS>MOLECULE
A1I
   40    42     1     0     0
SMALL
abcg2


@<TRIPOS>ATOM
      1 C10         12.0500    29.1480    -3.8850 c3         1 A1I       0.159300
      2 C15         15.9790    26.2660    -3.8530 cc         1 A1I       0.417900
      3 C17         16.6930    24.2310    -4.1560 cd         1 A1I       0.204300
      4 C20         16.9610    22.8010    -4.4100 cy         1 A1I      -0.136000
      5 C21         17.8110    22.5220    -5.6820 cy         1 A1I      -0.076900
      6 C22         19.0410    22.2720    -4.7900 cy         1 A1I      -0.090400
      7 C24         10.5910    30.5700    -2.4240 ca         1 A1I      -0.002000
      8 C05          9.9120    30.7870    -1.2310 ca         1 A1I      -0.338500
      9 C06          9.9460    29.8770    -0.1850 ca         1 A1I       0.002000
     10 C07         10.6840    28.7160    -0.3560 ca         1 A1I      -0.130000
     11 C08         11.3640    28.4840    -1.5420 ca         1 A1I      -0.025000
     12 C09         11.3240    29.4050    -2.5870 ca         1 A1I      -0.133300
     13 C12         13.8970    27.5360    -3.8360 c          1 A1I       0.669100
     14 C16         15.5360    24.9300    -4.0550 cc         1 A1I      -0.242000
     15 C23         18.1060    22.1730    -3.5710 cy         1 A1I      -0.076900
     16 N11         13.4360    28.8020    -3.7070 ns         1 A1I      -0.523900
     17 N14         15.2610    27.4240    -3.6790 ns         1 A1I      -0.494400
     18 N19         17.2840    26.3390    -3.8310 nd         1 A1I      -0.441300
     19 O03          9.4440    33.2660    -1.9800 o          1 A1I      -0.538500
     20 O04          8.7720    32.5730     0.3390 o          1 A1I      -0.538500
     21 O13         13.1820    26.5760    -4.0680 o          1 A1I      -0.616100
     22 O18         17.7290    25.0590    -4.0200 os         1 A1I      -0.061700
     23 S02          8.9950    32.2670    -1.0470 sy         1 A1I       1.341400
     24 H102        11.9860    30.0340    -4.5180 h1         1 A1I       0.072200
     25 H101        11.5550    28.3410    -4.4260 h1         1 A1I       0.072200
     26 H201        16.0070    22.2740    -4.3690 hc         1 A1I       0.077700
     27 H211        17.4680    21.6190    -6.1850 hc         1 A1I       0.057450
     28 H212        17.8760    23.3230    -6.4180 hc         1 A1I       0.057450
     29 H221        19.6440    21.3940    -5.0210 hc         1 A1I       0.057200
     30 H222        19.7010    23.1380    -4.7400 hc         1 A1I       0.057200
     31 H241        10.5590    31.3010    -3.2220 ha         1 A1I       0.138000
     32 H061         9.4230    30.0610     0.7430 ha         1 A1I       0.142000
     33 H071        10.7290    27.9910     0.4440 ha         1 A1I       0.127000
     34 H081        11.9290    27.5670    -1.6530 ha         1 A1I       0.133000
     35 H161        14.5350    24.5500    -4.1160 ha         1 A1I       0.176000
     36 H232        17.8700    21.1420    -3.3110 hc         1 A1I       0.057450
     37 H231        18.4030    22.6970    -2.6630 hc         1 A1I       0.057450
     38 H111        14.0700    29.5540    -3.4900 hn         1 A1I       0.318500
     39 H141        15.8140    28.2550    -3.5270 hn         1 A1I       0.334500
     40 F1           7.5760    31.7720    -1.6050 f          1 A1I      -0.262900
@<TRIPOS>BOND
     1     1    12 1   
     2     1    16 1   
     3     1    24 1   
     4     1    25 1   
     5     2    14 1   
     6     2    17 1   
     7     2    18 2   
     8     3     4 1   
     9     3    14 2   
    10     3    22 1   
    11     4     5 1   
    12     4    15 1   
    13     4    26 1   
    14     5     6 1   
    15     5    27 1   
    16     5    28 1   
    17     6    15 1   
    18     6    29 1   
    19     6    30 1   
    20     7     8 ar  
    21     7    12 ar  
    22     7    31 1   
    23     8     9 ar  
    24     8    23 1   
    25     9    10 ar  
    26     9    32 1   
    27    10    11 ar  
    28    10    33 1   
    29    11    12 ar  
    30    11    34 1   
    31    13    16 1   
    32    13    17 1   
    33    13    21 2   
    34    14    35 1   
    35    15    36 1   
    36    15    37 1   
    37    16    38 1   
    38    17    39 1   
    39    18    22 1   
    40    19    23 2   
    41    20    23 2   
    42    23    40 1   
@<TRIPOS>SUBSTRUCTURE
     1 A1I         1 TEMP              0 ****  ****    0 ROOT
