@<TRIPOS>MOLECULE
A1I
   31    33     1     0     0
SMALL
abcg2


@<TRIPOS>ATOM
      1 N1          40.8720   -11.5170   -15.5600 n7         1 A1I      -0.864400
      2 C4          38.5780   -12.2260   -15.9620 c6         1 A1I      -0.090400
      3 C5          40.0500   -12.5090   -16.2280 c6         1 A1I       0.159800
      4 C6          36.2230   -10.4940   -14.9670 cc         1 A1I      -0.159100
      5 C7          34.9170   -10.1170   -15.0850 cd         1 A1I      -0.245200
      6 C8          34.6940    -9.8540   -16.4710 ca         1 A1I      -0.097800
      7 C10         33.7140    -9.2720   -18.5790 ca         1 A1I      -0.143000
      8 C13         35.9200   -10.0980   -17.1330 ca         1 A1I      -0.044200
      9 C1          40.6180   -10.1820   -16.0690 c6         1 A1I       0.159800
     10 C2          39.1710    -9.7930   -15.7990 c6         1 A1I      -0.090400
     11 C3          38.2300   -10.8160   -16.4300 c6         1 A1I       0.089300
     12 N2          36.8340   -10.4900   -16.1920 na         1 A1I      -0.087700
     13 C9          33.5840    -9.4370   -17.2140 ca         1 A1I      -0.061000
     14 C11         34.9400    -9.5180   -19.2200 ca         1 A1I      -0.096000
     15 C12         36.0520    -9.9300   -18.5130 ca         1 A1I      -0.128000
     16 H1          41.8490   -11.7470   -15.6840 hn         1 A1I       0.415000
     17 H3          37.9560   -12.9570   -16.4850 hc         1 A1I       0.059200
     18 H4          38.3790   -12.3290   -14.8920 hc         1 A1I       0.059200
     19 H5          40.2140   -12.5300   -17.3180 h1         1 A1I       0.032950
     20 H6          40.3090   -13.4990   -15.8490 h1         1 A1I       0.032950
     21 H8          34.2040   -10.0360   -14.2810 ha         1 A1I       0.204000
     22 H9          32.8640    -8.9490   -19.1660 ha         1 A1I       0.109000
     23 H10         41.2880    -9.4780   -15.5720 h1         1 A1I       0.032950
     24 H11         40.8120   -10.0970   -17.1510 h1         1 A1I       0.032950
     25 H12         39.0040    -9.7510   -14.7190 hc         1 A1I       0.059200
     26 H13         38.9670    -8.7990   -16.2030 hc         1 A1I       0.059200
     27 H14         38.3750   -10.7810   -17.5130 h1         1 A1I       0.061700
     28 H15         32.6360    -9.2460   -16.7250 ha         1 A1I       0.113000
     29 H16         35.0160    -9.3790   -20.2910 ha         1 A1I       0.107000
     30 H17         36.9890   -10.1130   -19.0240 ha         1 A1I       0.109000
     31 H7          36.7730   -10.7710   -14.0810 h4         1 A1I       0.212000
@<TRIPOS>BOND
     1     1     3 1   
     2     1     9 1   
     3     1    16 1   
     4     2     3 1   
     5     2    11 1   
     6     2    17 1   
     7     2    18 1   
     8     3    19 1   
     9     3    20 1   
    10     4     5 2   
    11     4    12 1   
    12     4    31 1   
    13     5     6 1   
    14     5    21 1   
    15     6     8 ar  
    16     6    13 ar  
    17     7    13 ar  
    18     7    14 ar  
    19     7    22 1   
    20     8    12 1   
    21     8    15 ar  
    22     9    10 1   
    23     9    23 1   
    24     9    24 1   
    25    10    11 1   
    26    10    25 1   
    27    10    26 1   
    28    11    12 1   
    29    11    27 1   
    30    13    28 1   
    31    14    15 ar  
    32    14    29 1   
    33    15    30 1   
@<TRIPOS>SUBSTRUCTURE
     1 A1I         1 TEMP              0 ****  ****    0 ROOT
