@<TRIPOS>MOLECULE
A1I
   61    64     1     0     0
SMALL
abcg2


@<TRIPOS>ATOM
      1 C1         205.5570   181.4100   198.7730 c3         1 A1I       0.144900
      2 C3         203.4760   180.9090   199.8000 ca         1 A1I       0.130100
      3 C5         202.7550   181.9670   201.8470 ca         1 A1I      -0.090000
      4 C6         201.5830   181.2370   201.8200 ca         1 A1I      -0.129000
      5 C7         201.3670   180.3200   200.7950 ca         1 A1I      -0.125000
      6 C8         202.2970   180.1310   199.7790 ca         1 A1I       0.234000
      7 C10        202.9510   178.0420   198.7540 c6         1 A1I       0.187800
      8 C11        202.8950   177.3320   197.4160 c6         1 A1I       0.174300
      9 C13        201.4380   176.1040   195.9260 c6         1 A1I       0.197500
     10 C14        201.7360   176.7740   194.5780 c6         1 A1I      -0.111400
     11 C15        201.7810   175.7580   193.4440 c6         1 A1I      -0.075400
     12 C16        200.4730   174.9860   193.3620 c6         1 A1I      -0.069400
     13 C23        197.5350   176.0100   197.7720 ca         1 A1I      -0.265500
     14 C24        197.8330   176.7160   198.9310 ca         1 A1I      -0.011000
     15 C25        197.3020   177.9840   199.1010 ca         1 A1I      -0.136000
     16 C26        196.4900   178.5380   198.1190 ca         1 A1I      -0.059000
     17 C27        196.1990   177.8220   196.9660 ca         1 A1I      -0.136000
     18 C28        196.7170   176.5470   196.7890 ca         1 A1I      -0.011000
     19 C17        200.1360   174.3390   194.7000 c6         1 A1I      -0.114400
     20 C18        200.0910   175.3640   195.8360 c6         1 A1I       0.236500
     21 C29        200.6840   178.1520   197.0700 c6         1 A1I       0.174300
     22 C30        200.7370   178.8540   198.4160 c6         1 A1I       0.187800
     23 C4         203.7030   181.8020   200.8390 ca         1 A1I      -0.188000
     24 N12        201.5300   176.9760   197.0840 n3         1 A1I      -0.726600
     25 N19        199.7800   174.7670   197.1320 n7         1 A1I      -0.890300
     26 N9         202.1030   179.2270   198.7200 nh         1 A1I      -0.764400
     27 O2         204.3190   180.7320   198.7630 os         1 A1I      -0.328100
     28 O21        197.4900   173.7360   196.4920 o          1 A1I      -0.549000
     29 O22        198.3300   173.7320   198.8470 o          1 A1I      -0.549000
     30 S20        198.2390   174.3970   197.5550 sy         1 A1I       1.157600
     31 H33        206.0850   181.1010   197.8730 h1         1 A1I       0.038700
     32 H35        205.4320   182.4960   198.7490 h1         1 A1I       0.038700
     33 H34        206.1630   181.1460   199.6440 h1         1 A1I       0.038700
     34 H37        202.9460   182.6770   202.6410 ha         1 A1I       0.112000
     35 H38        200.8380   181.3640   202.5950 ha         1 A1I       0.114000
     36 H39        200.4540   179.7390   200.7950 ha         1 A1I       0.113000
     37 H40        202.6250   177.3520   199.5480 h1         1 A1I       0.041950
     38 H41        203.9820   178.3190   198.9640 h1         1 A1I       0.041950
     39 H43        203.4950   176.4200   197.4740 h1         1 A1I       0.037700
     40 H42        203.3640   177.9820   196.6600 h1         1 A1I       0.037700
     41 H31        202.2010   175.3290   196.0820 h1         1 A1I       0.053700
     42 H44        202.6860   177.3100   194.6350 hc         1 A1I       0.047200
     43 H45        200.9660   177.5230   194.3610 hc         1 A1I       0.047200
     44 H47        202.6060   175.0590   193.6160 hc         1 A1I       0.042700
     45 H46        201.9900   176.2610   192.4970 hc         1 A1I       0.042700
     46 H48        199.6650   175.6660   193.0730 hc         1 A1I       0.045200
     47 H49        200.5260   174.2200   192.5860 hc         1 A1I       0.045200
     48 H53        198.4730   176.2900   199.6930 ha         1 A1I       0.137000
     49 H54        197.5270   178.5420   200.0000 ha         1 A1I       0.117500
     50 H55        196.0810   179.5310   198.2550 ha         1 A1I       0.116000
     51 H56        195.5640   178.2520   196.2030 ha         1 A1I       0.117500
     52 H57        196.4830   175.9870   195.8930 ha         1 A1I       0.137000
     53 H50        199.1790   173.8210   194.6360 hc         1 A1I       0.057200
     54 H51        200.8920   173.5850   194.9430 hc         1 A1I       0.057200
     55 H32        199.3040   176.0970   195.6200 h1         1 A1I       0.059700
     56 H58        200.9700   178.8750   196.2890 h1         1 A1I       0.037700
     57 H59        199.6480   177.8650   196.8770 h1         1 A1I       0.037700
     58 H60        200.1140   179.7500   198.3760 h1         1 A1I       0.041950
     59 H61        200.3060   178.1880   199.1800 h1         1 A1I       0.041950
     60 H36        204.6050   182.3980   200.8670 ha         1 A1I       0.116000
     61 H52        200.4440   174.0730   197.4630 hn         1 A1I       0.494000
@<TRIPOS>BOND
     1     1    27 1   
     2     1    31 1   
     3     1    32 1   
     4     1    33 1   
     5     2     6 ar  
     6     2    23 ar  
     7     2    27 1   
     8     3     4 ar  
     9     3    23 ar  
    10     3    34 1   
    11     4     5 ar  
    12     4    35 1   
    13     5     6 ar  
    14     5    36 1   
    15     6    26 1   
    16     7     8 1   
    17     7    26 1   
    18     7    37 1   
    19     7    38 1   
    20     8    24 1   
    21     8    39 1   
    22     8    40 1   
    23     9    10 1   
    24     9    20 1   
    25     9    24 1   
    26     9    41 1   
    27    10    11 1   
    28    10    42 1   
    29    10    43 1   
    30    11    12 1   
    31    11    44 1   
    32    11    45 1   
    33    12    19 1   
    34    12    46 1   
    35    12    47 1   
    36    13    14 ar  
    37    13    18 ar  
    38    13    30 1   
    39    14    15 ar  
    40    14    48 1   
    41    15    16 ar  
    42    15    49 1   
    43    16    17 ar  
    44    16    50 1   
    45    17    18 ar  
    46    17    51 1   
    47    18    52 1   
    48    19    20 1   
    49    19    53 1   
    50    19    54 1   
    51    20    25 1   
    52    20    55 1   
    53    21    22 1   
    54    21    24 1   
    55    21    56 1   
    56    21    57 1   
    57    22    26 1   
    58    22    58 1   
    59    22    59 1   
    60    23    60 1   
    61    25    30 1   
    62    25    61 1   
    63    28    30 2   
    64    29    30 2   
@<TRIPOS>SUBSTRUCTURE
     1 A1I         1 TEMP              0 ****  ****    0 ROOT
