@<TRIPOS>MOLECULE
A1I
   42    44     1     0     0
SMALL
abcg2


@<TRIPOS>ATOM
      1 C01        -30.2830   -19.9440   -11.7770 ca         1 A1I       0.370900
      2 C02        -28.0610   -20.0640   -12.3080 ca         1 A1I       0.483900
      3 C03        -27.8730   -21.1720   -11.4800 ca         1 A1I      -0.174000
      4 C04        -28.9680   -21.6700   -10.7730 ca         1 A1I       0.043000
      5 C05        -30.2060   -21.0360   -10.9310 ca         1 A1I      -0.179000
      6 C07        -24.8740   -18.9350   -14.0140 cx         1 A1I      -0.230700
      7 C08        -25.3870   -18.3160   -15.3000 cx         1 A1I      -0.108400
      8 C09        -25.0860   -17.4380   -14.1340 cx         1 A1I      -0.108400
      9 C10        -24.7960   -24.3240    -5.8590 c3         1 A1I       0.147800
     10 C11        -25.1970   -25.0360    -7.1430 c3         1 A1I       0.211800
     11 C12        -29.2050   -24.3050    -8.1230 cc         1 A1I       0.012000
     12 C13        -28.1100   -24.8760    -8.7180 cd         1 A1I      -0.454500
     13 C14        -28.8330   -22.8180    -9.8770 cd         1 A1I      -0.143000
     14 C15        -29.6210   -23.1350    -8.7910 cc         1 A1I      -0.147000
     15 N01        -29.2430   -19.4570   -12.4560 nb         1 A1I      -0.730000
     16 N02        -27.0420   -19.4650   -13.0530 ns         1 A1I      -0.324900
     17 N03        -26.4130   -25.8260    -6.9130 n7         1 A1I      -0.915300
     18 N04        -23.5670   -23.5610    -6.0900 n8         1 A1I      -1.004200
     19 O01        -25.2260   -20.7500   -12.5430 o          1 A1I      -0.579100
     20 O02        -26.4360   -26.7260    -9.3040 o          1 A1I      -0.553000
     21 O03        -28.2490   -27.2700    -7.6850 o          1 A1I      -0.553000
     22 S02        -27.5760   -23.9880   -10.0950 ss         1 A1I       0.375000
     23 H01        -31.2290   -19.4340   -11.9230 h4         1 A1I       0.023100
     24 H02        -26.8910   -21.6030   -11.3830 ha         1 A1I       0.163000
     25 H03        -31.0910   -21.3930   -10.4240 ha         1 A1I       0.130000
     26 H05        -23.8490   -19.2780   -14.0210 hc         1 A1I       0.114700
     27 H06        -24.7020   -18.3200   -16.1360 hc         1 A1I       0.080700
     28 H07        -26.4220   -18.4880   -15.5660 hc         1 A1I       0.080700
     29 H09        -25.9110   -16.9990   -13.5890 hc         1 A1I       0.080700
     30 H08        -24.1910   -16.8310   -14.1620 hc         1 A1I       0.080700
     31 H11        -24.7060   -25.0650    -5.0530 h1         1 A1I       0.038200
     32 H10        -25.5900   -23.6310    -5.5760 h1         1 A1I       0.038200
     33 H13        -25.4090   -24.2950    -7.9140 h1         1 A1I       0.058700
     34 H12        -24.3790   -25.6680    -7.5000 h1         1 A1I       0.058700
     35 H15        -29.6830   -24.7110    -7.2440 ha         1 A1I       0.148000
     36 H16        -30.4590   -22.5320    -8.4730 ha         1 A1I       0.139000
     37 H04        -27.3720   -18.6670   -13.5750 hn         1 A1I       0.167000
     38 H14        -26.3350   -26.5650    -6.2220 hn         1 A1I       0.489000
     39 H18        -23.3580   -22.9940    -5.2750 hn         1 A1I       0.399000
     40 H17        -22.7820   -24.1950    -6.2020 hn         1 A1I       0.399000
     41 S01        -27.2840   -26.3280    -8.2010 sy         1 A1I       1.228600
     42 C06        -25.7160   -19.7970   -13.1420 c          1 A1I       0.646100
@<TRIPOS>BOND
     1     1     5 ar  
     2     1    15 ar  
     3     1    23 1   
     4     2     3 ar  
     5     2    15 ar  
     6     2    16 1   
     7     3     4 ar  
     8     3    24 1   
     9     4     5 ar  
    10     4    13 1   
    11     5    25 1   
    12     6     7 1   
    13     6     8 1   
    14     6    26 1   
    15     6    42 1   
    16     7     8 1   
    17     7    27 1   
    18     7    28 1   
    19     8    29 1   
    20     8    30 1   
    21     9    10 1   
    22     9    18 1   
    23     9    31 1   
    24     9    32 1   
    25    10    17 1   
    26    10    33 1   
    27    10    34 1   
    28    11    12 2   
    29    11    14 1   
    30    11    35 1   
    31    12    22 1   
    32    12    41 1   
    33    13    14 2   
    34    13    22 1   
    35    14    36 1   
    36    16    37 1   
    37    16    42 1   
    38    17    38 1   
    39    17    41 1   
    40    18    39 1   
    41    18    40 1   
    42    19    42 2   
    43    20    41 2   
    44    21    41 2   
@<TRIPOS>SUBSTRUCTURE
     1 A1I         1 TEMP              0 ****  ****    0 ROOT
