@<TRIPOS>MOLECULE
A1I
   27    28     1     0     0
SMALL
abcg2


@<TRIPOS>ATOM
      1 C1          22.6800    16.3530    -7.2470 c          1 A1I       0.577000
      2 C2          22.5370    17.7410    -6.6870 c6         1 A1I      -0.164400
      3 C4          24.5700    18.4690    -7.9270 c6         1 A1I       0.151500
      4 C7          26.5340    20.3970   -11.2990 ca         1 A1I      -0.069500
      5 C9          28.4820    20.6190    -9.9370 ca         1 A1I      -0.069500
      6 C10         27.7950    20.0770    -8.8640 ca         1 A1I      -0.170000
      7 C11         24.7740    17.0300    -8.3950 c          1 A1I       0.534000
      8 O2          25.7300    16.6710    -9.0390 o          1 A1I      -0.499000
      9 N2          23.7850    16.1350    -8.0470 ns         1 A1I      -0.485500
     10 O1          21.8920    15.4590    -7.0430 o          1 A1I      -0.512000
     11 C3          23.8580    18.4810    -6.5800 c6         1 A1I      -0.080400
     12 N1          25.7970    19.2030    -7.8750 nu         1 A1I      -0.943200
     13 C5          26.4560    19.6810    -8.9890 ca         1 A1I       0.319000
     14 C8          27.8600    20.7870   -11.1690 ca         1 A1I      -0.151000
     15 C6          25.8360    19.8480   -10.2330 ca         1 A1I      -0.170000
     16 H1          21.8570    18.2880    -7.3490 hc         1 A1I       0.082700
     17 H2          22.0380    17.6670    -5.7210 hc         1 A1I       0.082700
     18 H3          23.8960    18.9400    -8.6510 h1         1 A1I       0.087700
     19 H5          29.5160    20.9100    -9.8060 ha         1 A1I       0.109500
     20 H6          28.2970    19.9550    -7.9110 ha         1 A1I       0.107000
     21 H7          23.8950    15.1920    -8.4040 hn         1 A1I       0.329500
     22 H8          24.4930    18.0220    -5.8160 hc         1 A1I       0.065700
     23 H9          23.6820    19.5130    -6.2790 hc         1 A1I       0.065700
     24 H10         26.4030    18.9390    -7.1120 hn         1 A1I       0.472000
     25 H11         28.3980    21.2080   -12.0070 ha         1 A1I       0.114000
     26 H12         24.8070    19.5510   -10.3890 ha         1 A1I       0.107000
     27 H4          26.0280    20.5130   -12.2490 ha         1 A1I       0.109500
@<TRIPOS>BOND
     1     1     2 1   
     2     1     9 1   
     3     1    10 2   
     4     2    11 1   
     5     2    16 1   
     6     2    17 1   
     7     3     7 1   
     8     3    11 1   
     9     3    12 1   
    10     3    18 1   
    11     4    14 ar  
    12     4    15 ar  
    13     4    27 1   
    14     5     6 ar  
    15     5    14 ar  
    16     5    19 1   
    17     6    13 ar  
    18     6    20 1   
    19     7     8 2   
    20     7     9 1   
    21     9    21 1   
    22    11    22 1   
    23    11    23 1   
    24    12    13 1   
    25    12    24 1   
    26    13    15 ar  
    27    14    25 1   
    28    15    26 1   
@<TRIPOS>SUBSTRUCTURE
     1 A1I         1 TEMP              0 ****  ****    0 ROOT
