@<TRIPOS>MOLECULE
A1I
   43    42     1     0     0
SMALL
abcg2


@<TRIPOS>ATOM
      1 C4           7.9800   -42.9340    11.5760 c2         1 A1I      -0.108400
      2 C6           7.4840   -41.8720    12.5140 c3         1 A1I      -0.055900
      3 C7           8.3350   -44.2180    12.2880 c3         1 A1I      -0.040200
      4 C8           8.6880   -45.4410    11.4480 c3         1 A1I      -0.070400
      5 C10          7.7930   -47.3580     9.9800 c3         1 A1I      -0.061700
      6 C13          5.2010   -39.3050     9.8550 c3         1 A1I      -0.053900
      7 C15          5.3400   -41.7700     9.2910 c2         1 A1I      -0.108400
      8 C12          6.4990   -47.9910     9.4780 c3         1 A1I      -0.087100
      9 C11          8.7390   -47.0950     8.8120 c3         1 A1I      -0.087100
     10 C9           7.4840   -46.0850    10.7680 c3         1 A1I      -0.075400
     11 C3           8.1270   -42.7660    10.2600 c2         1 A1I      -0.221200
     12 C2           7.8660   -41.5310     9.4540 c3         1 A1I      -0.033200
     13 C1           6.6390   -41.6440     8.5340 c3         1 A1I      -0.034200
     14 C16          4.7630   -43.1500     9.3900 c3         1 A1I      -0.053900
     15 C14          4.7360   -40.7270     9.8660 c2         1 A1I      -0.227200
     16 H1           6.5530   -42.1910    12.9900 hc         1 A1I       0.038367
     17 H2           8.2010   -41.7070    13.3230 hc         1 A1I       0.038367
     18 H3           7.2930   -40.9150    12.0340 hc         1 A1I       0.038367
     19 H4           7.5080   -44.4780    12.9600 hc         1 A1I       0.042200
     20 H5           9.1720   -43.9930    12.9600 hc         1 A1I       0.042200
     21 H6           9.1480   -46.1820    12.1080 hc         1 A1I       0.039200
     22 H7           9.4570   -45.1830    10.7160 hc         1 A1I       0.039200
     23 H8           8.2780   -48.0690    10.6610 hc         1 A1I       0.042700
     24 H9           5.6060   -39.0140    10.8290 hc         1 A1I       0.036367
     25 H10          5.9770   -39.1170     9.1140 hc         1 A1I       0.036367
     26 H11          4.3730   -38.6250     9.6470 hc         1 A1I       0.036367
     27 H12          5.8150   -48.2110    10.3000 hc         1 A1I       0.031533
     28 H13          5.9820   -47.3180     8.7890 hc         1 A1I       0.031533
     29 H14          6.6910   -48.9250     8.9460 hc         1 A1I       0.031533
     30 H15          9.7090   -46.7220     9.1400 hc         1 A1I       0.031533
     31 H16          8.9170   -48.0060     8.2380 hc         1 A1I       0.031533
     32 H17          8.3110   -46.3530     8.1320 hc         1 A1I       0.031533
     33 H18          7.0010   -45.3690    10.0950 hc         1 A1I       0.039700
     34 H19          6.7400   -46.3160    11.5390 hc         1 A1I       0.039700
     35 H20          8.4780   -43.6100     9.6720 ha         1 A1I       0.167000
     36 H21          8.7400   -41.3390     8.8230 hc         1 A1I       0.042700
     37 H22          7.7510   -40.6530    10.0910 hc         1 A1I       0.042700
     38 H23          6.7660   -42.5060     7.8720 hc         1 A1I       0.042700
     39 H24          6.6180   -40.7650     7.8850 hc         1 A1I       0.042700
     40 H25          3.8520   -43.1750     9.9880 hc         1 A1I       0.039367
     41 H26          4.5290   -43.5490     8.3990 hc         1 A1I       0.039367
     42 H27          5.4830   -43.8390     9.8380 hc         1 A1I       0.039367
     43 H28          3.8170   -40.9130    10.4160 ha         1 A1I       0.165000
@<TRIPOS>BOND
     1     1     2 1   
     2     1     3 1   
     3     1    11 2   
     4     2    16 1   
     5     2    17 1   
     6     2    18 1   
     7     3     4 1   
     8     3    19 1   
     9     3    20 1   
    10     4    10 1   
    11     4    21 1   
    12     4    22 1   
    13     5     8 1   
    14     5     9 1   
    15     5    10 1   
    16     5    23 1   
    17     6    15 1   
    18     6    24 1   
    19     6    25 1   
    20     6    26 1   
    21     7    13 1   
    22     7    14 1   
    23     7    15 2   
    24     8    27 1   
    25     8    28 1   
    26     8    29 1   
    27     9    30 1   
    28     9    31 1   
    29     9    32 1   
    30    10    33 1   
    31    10    34 1   
    32    11    12 1   
    33    11    35 1   
    34    12    13 1   
    35    12    36 1   
    36    12    37 1   
    37    13    38 1   
    38    13    39 1   
    39    14    40 1   
    40    14    41 1   
    41    14    42 1   
    42    15    43 1   
@<TRIPOS>SUBSTRUCTURE
     1 A1I         1 TEMP              0 ****  ****    0 ROOT
