@<TRIPOS>MOLECULE
A1I
   29    31     1     0     0
SMALL
abcg2


@<TRIPOS>ATOM
      1 C1          22.3580    16.7990    -7.4390 c          1 A1I       0.578000
      2 C2          22.4020    18.1290    -6.7420 c6         1 A1I      -0.165400
      3 C3          23.4400    19.0700    -7.3300 c6         1 A1I      -0.089400
      4 C4          24.7980    18.3780    -7.3440 c6         1 A1I       0.014300
      5 C9          25.2090    19.4900   -10.2620 ca         1 A1I      -0.125000
      6 O1          21.3820    16.0880    -7.4790 o          1 A1I      -0.507000
      7 N1          23.5360    16.3910    -8.0390 ns         1 A1I      -0.486500
      8 C12         27.5540    21.0750   -10.3630 ca         1 A1I      -0.059000
      9 C13         24.7470    17.0420    -8.0740 c          1 A1I       0.558000
     10 N2          25.8640    19.1950    -7.8490 na         1 A1I      -0.089700
     11 C6          27.7370    20.4300    -7.8510 cc         1 A1I      -0.226200
     12 C8          26.0000    19.6770    -9.1280 ca         1 A1I      -0.033200
     13 C10         25.6090    20.1080   -11.4320 ca         1 A1I      -0.090000
     14 C11         26.7710    20.8940   -11.4850 ca         1 A1I      -0.138000
     15 C7          27.1740    20.4620    -9.1640 ca         1 A1I      -0.094800
     16 C5          26.9150    19.6530    -7.0940 cd         1 A1I      -0.156100
     17 H1          21.4050    18.5650    -6.7720 hc         1 A1I       0.083200
     18 H2          22.6280    17.9340    -5.6870 hc         1 A1I       0.083200
     19 H3          23.5060    19.9740    -6.7270 hc         1 A1I       0.072700
     20 H4          23.1460    19.3730    -8.3360 hc         1 A1I       0.072700
     21 H5          25.0520    18.1320    -6.3060 h1         1 A1I       0.083700
     22 H7          23.5110    15.4860    -8.4980 hn         1 A1I       0.333500
     23 H8          28.4510    21.6800   -10.4080 ha         1 A1I       0.115000
     24 H9          28.6370    20.9180    -7.5140 ha         1 A1I       0.208000
     25 H10         25.0130    19.9810   -12.3260 ha         1 A1I       0.110000
     26 H11         27.0520    21.3610   -12.4190 ha         1 A1I       0.111000
     27 H12         26.9900    19.3810    -6.0530 h4         1 A1I       0.209000
     28 O2          25.7010    16.5580    -8.6310 o          1 A1I      -0.481000
     29 H6          24.3100    18.8870   -10.2520 ha         1 A1I       0.110000
@<TRIPOS>BOND
     1     1     2 1   
     2     1     6 2   
     3     1     7 1   
     4     2     3 1   
     5     2    17 1   
     6     2    18 1   
     7     3     4 1   
     8     3    19 1   
     9     3    20 1   
    10     4     9 1   
    11     4    10 1   
    12     4    21 1   
    13     5    12 ar  
    14     5    13 ar  
    15     5    29 1   
    16     7     9 1   
    17     7    22 1   
    18     8    14 ar  
    19     8    15 ar  
    20     8    23 1   
    21     9    28 2   
    22    10    12 1   
    23    10    16 1   
    24    11    15 1   
    25    11    16 2   
    26    11    24 1   
    27    12    15 ar  
    28    13    14 ar  
    29    13    25 1   
    30    14    26 1   
    31    16    27 1   
@<TRIPOS>SUBSTRUCTURE
     1 A1I         1 TEMP              0 ****  ****    0 ROOT
