@<TRIPOS>MOLECULE
A1I
   77    82     1     0     0
SMALL
abcg2


@<TRIPOS>ATOM
      1 N1           1.1240   -41.0110    -1.5420 n3         1 A1I      -0.743600
      2 C7          -2.5250   -43.2890    -1.7110 c3         1 A1I       0.077600
      3 C8          -3.0720   -44.6640     0.3110 cc         1 A1I      -0.207000
      4 N2          -3.2440   -43.6050    -0.4920 na         1 A1I       0.126800
      5 C9          -3.8860   -44.4100     1.3880 cd         1 A1I       0.275800
      6 O1          -5.1940   -48.6090     2.4560 o          1 A1I      -0.541100
      7 C1           2.4610   -40.4730    -1.3800 c3         1 A1I       0.165800
      8 C5          -0.3630   -42.5560    -2.7330 c6         1 A1I      -0.074400
      9 C6          -1.0770   -42.9020    -1.4310 c6         1 A1I      -0.082700
     10 N3          -4.0920   -42.7420     0.0410 nc         1 A1I      -0.199800
     11 C4           1.0720   -42.1290    -2.4690 c6         1 A1I       0.171300
     12 C3          -0.9540   -41.7340    -0.4590 c6         1 A1I      -0.074400
     13 O3           2.5330   -38.3480    -5.2760 o          1 A1I      -0.550000
     14 C2           0.5030   -41.3440    -0.2730 c6         1 A1I       0.171300
     15 N4          -4.4860   -43.2150     1.1720 nd         1 A1I      -0.344000
     16 N            1.8130   -38.6750    -2.8310 n7         1 A1I      -0.898300
     17 C            2.8770   -39.6400    -2.5840 c3         1 A1I       0.205800
     18 O            0.5820   -37.1070    -4.3040 o          1 A1I      -0.550000
     19 C10         -4.0450   -45.1490     2.6320 cd         1 A1I      -0.115000
     20 C11         -4.4470   -46.4530     2.8560 cc         1 A1I      -0.146300
     21 C12         -4.9540   -47.5180     1.9740 c          1 A1I       0.603300
     22 C13         -5.1840   -47.2300     0.5210 c3         1 A1I      -0.185100
     23 C14         -3.9480   -45.6170     4.8620 ca         1 A1I      -0.051200
     24 C15         -3.7220   -45.4100     6.2260 ca         1 A1I      -0.104000
     25 C16         -3.2750   -44.1690     6.6170 ca         1 A1I      -0.118000
     26 C17         -3.0570   -43.1650     5.6620 ca         1 A1I       0.133000
     27 C18         -3.2700   -43.3410     4.3220 ca         1 A1I      -0.085000
     28 C19         -3.7330   -44.6000     3.9110 ca         1 A1I      -0.078800
     29 C20          3.0150   -36.4240    -3.5830 ca         1 A1I      -0.265500
     30 C21          4.0810   -36.0480    -4.3840 ca         1 A1I      -0.014500
     31 C22          4.8930   -35.0000    -3.9810 ca         1 A1I      -0.109000
     32 C23          4.6510   -34.3290    -2.7860 cp         1 A1I       0.036000
     33 C24          5.5290   -33.2180    -2.3590 cp         1 A1I      -0.135000
     34 C25          6.8950   -33.4190    -2.1190 ca         1 A1I       0.180100
     35 C26          7.7060   -32.3560    -1.7270 ca         1 A1I      -0.228000
     36 C27          7.1610   -31.0920    -1.5690 ca         1 A1I      -0.035000
     37 C28          5.8120   -30.8620    -1.7920 ca         1 A1I      -0.191000
     38 C29          5.0350   -31.9340    -2.1800 ca         1 A1I       0.225000
     39 C30          3.5720   -34.7240    -1.9950 ca         1 A1I      -0.109000
     40 C31          2.7480   -35.7630    -2.3910 ca         1 A1I      -0.014500
     41 F           -2.6170   -41.9720     6.1040 f          1 A1I      -0.183000
     42 F1           3.7280   -31.7300    -2.4060 f          1 A1I      -0.167000
     43 N5          -4.3710   -46.7180     4.1950 na         1 A1I      -0.181700
     44 O2           7.3640   -34.6670    -2.2700 oh         1 A1I      -0.522100
     45 S            1.9050   -37.6900    -4.1370 sy         1 A1I       1.151600
     46 H15         -3.0610   -42.4690    -2.1910 h1         1 A1I       0.076200
     47 H14         -2.5730   -44.1550    -2.3720 h1         1 A1I       0.076200
     48 H16         -2.4040   -45.4770     0.0790 h4         1 A1I       0.168000
     49 H4           3.2190   -41.2520    -1.2090 h1         1 A1I       0.044700
     50 H3           2.4620   -39.8300    -0.4970 h1         1 A1I       0.044700
     51 H11         -0.8930   -41.7430    -3.2400 hc         1 A1I       0.056700
     52 H12         -0.3650   -43.4130    -3.4110 hc         1 A1I       0.056700
     53 H13         -0.5710   -43.7710    -0.9910 hc         1 A1I       0.050700
     54 H10          1.6470   -42.9890    -2.0830 h1         1 A1I       0.036700
     55 H9           1.5390   -41.8400    -3.4120 h1         1 A1I       0.036700
     56 H8          -1.5160   -40.8750    -0.8400 hc         1 A1I       0.056700
     57 H7          -1.3720   -41.9860     0.5180 hc         1 A1I       0.056700
     58 H5           1.0370   -42.1670     0.2330 h1         1 A1I       0.036700
     59 H6           0.5680   -40.4740     0.3840 h1         1 A1I       0.036700
     60 H            0.8900   -39.0940    -2.7190 hn         1 A1I       0.513000
     61 H2           3.8060   -39.1180    -2.3530 h1         1 A1I       0.052200
     62 H1           3.0650   -40.2730    -3.4560 h1         1 A1I       0.052200
     63 H18         -5.8320   -47.9930     0.0950 hc         1 A1I       0.067700
     64 H19         -5.6260   -46.2480     0.3600 hc         1 A1I       0.067700
     65 H17         -4.2360   -47.2510    -0.0200 hc         1 A1I       0.067700
     66 H21         -3.8900   -46.1940     6.9520 ha         1 A1I       0.122000
     67 H22         -3.0860   -43.9590     7.6620 ha         1 A1I       0.131000
     68 H23         -3.0940   -42.5400     3.6150 ha         1 A1I       0.144000
     69 H24          4.2850   -36.5580    -5.3160 ha         1 A1I       0.135000
     70 H25          5.7180   -34.6980    -4.6130 ha         1 A1I       0.121000
     71 H27          8.7610   -32.5210    -1.5420 ha         1 A1I       0.120000
     72 H28          7.7990   -30.2730    -1.2650 ha         1 A1I       0.120000
     73 H29          5.3760   -29.8800    -1.6750 ha         1 A1I       0.139000
     74 H30          3.3780   -34.2270    -1.0540 ha         1 A1I       0.121000
     75 H31          1.9210   -36.0630    -1.7620 ha         1 A1I       0.135000
     76 H20         -4.6210   -47.6030     4.6100 hn         1 A1I       0.372000
     77 H26          8.3110   -34.6980    -2.0900 ho         1 A1I       0.469000
@<TRIPOS>BOND
     1     1     7 1   
     2     1    11 1   
     3     1    14 1   
     4     2     4 1   
     5     2     9 1   
     6     2    46 1   
     7     2    47 1   
     8     3     4 1   
     9     3     5 2   
    10     3    48 1   
    11     4    10 1   
    12     5    15 1   
    13     5    19 1   
    14     6    21 2   
    15     7    17 1   
    16     7    49 1   
    17     7    50 1   
    18     8     9 1   
    19     8    11 1   
    20     8    51 1   
    21     8    52 1   
    22     9    12 1   
    23     9    53 1   
    24    10    15 2   
    25    11    54 1   
    26    11    55 1   
    27    12    14 1   
    28    12    56 1   
    29    12    57 1   
    30    13    45 2   
    31    14    58 1   
    32    14    59 1   
    33    16    17 1   
    34    16    45 1   
    35    16    60 1   
    36    17    61 1   
    37    17    62 1   
    38    18    45 2   
    39    19    20 2   
    40    19    28 1   
    41    20    21 1   
    42    20    43 1   
    43    21    22 1   
    44    22    63 1   
    45    22    64 1   
    46    22    65 1   
    47    23    24 ar  
    48    23    28 ar  
    49    23    43 1   
    50    24    25 ar  
    51    24    66 1   
    52    25    26 ar  
    53    25    67 1   
    54    26    27 ar  
    55    26    41 1   
    56    27    28 ar  
    57    27    68 1   
    58    29    30 ar  
    59    29    40 ar  
    60    29    45 1   
    61    30    31 ar  
    62    30    69 1   
    63    31    32 ar  
    64    31    70 1   
    65    32    33 1   
    66    32    39 ar  
    67    33    34 ar  
    68    33    38 ar  
    69    34    35 ar  
    70    34    44 1   
    71    35    36 ar  
    72    35    71 1   
    73    36    37 ar  
    74    36    72 1   
    75    37    38 ar  
    76    37    73 1   
    77    38    42 1   
    78    39    40 ar  
    79    39    74 1   
    80    40    75 1   
    81    43    76 1   
    82    44    77 1   
@<TRIPOS>SUBSTRUCTURE
     1 A1I         1 TEMP              0 ****  ****    0 ROOT
