@<TRIPOS>MOLECULE
A1I
   44    45     1     0     0
SMALL
abcg2


@<TRIPOS>ATOM
      1 N1           5.9940    27.9610    41.8430 nu         1 A1I      -0.973200
      2 C4           7.3230    30.9200    43.5400 ca         1 A1I      -0.043000
      3 C5           8.2230    30.3450    44.4290 ca         1 A1I      -0.063900
      4 C6           8.3950    28.9740    44.4560 ca         1 A1I      -0.040000
      5 C7           7.6600    28.1770    43.5900 ca         1 A1I      -0.183000
      6 C10          3.7250    25.2300    44.3570 c6         1 A1I       0.078500
      7 C13          2.2930    25.4960    41.9070 c6         1 A1I       0.072500
      8 C15          2.7320    24.1760    43.8890 c6         1 A1I       0.072500
      9 C17         -0.1030    23.9320    44.4300 c3         1 A1I      -0.152400
     10 C22          6.1650    26.5410    41.7180 c3         1 A1I       0.143800
     11 C2           6.7460    28.7350    42.6910 ca         1 A1I       0.332000
     12 C3           6.5780    30.1370    42.6730 ca         1 A1I      -0.150300
     13 C9           5.5930    30.7720    41.7360 c3         1 A1I      -0.042800
     14 N11          4.3040    25.9240    43.2210 n          1 A1I      -0.393800
     15 C12          3.2960    26.5420    42.3800 c6         1 A1I       0.078500
     16 N14          1.7280    24.7770    43.0320 n          1 A1I      -0.420800
     17 C16          0.3870    24.6920    43.2100 c          1 A1I       0.609100
     18 O18         -0.4010    25.2020    42.4260 o          1 A1I      -0.601100
     19 C19         -1.6180    23.8940    44.5400 c3         1 A1I      -0.077100
     20 O21          6.3370    24.9890    43.5220 o          1 A1I      -0.601100
     21 H1           5.5930    28.4240    41.0460 hn         1 A1I       0.485000
     22 H4           7.1850    31.9940    43.5180 ha         1 A1I       0.124000
     23 H6           9.0930    28.5080    45.1390 ha         1 A1I       0.129000
     24 H7           7.8170    27.1080    43.6310 ha         1 A1I       0.134000
     25 H10B         4.5100    24.7660    44.9480 h1         1 A1I       0.066200
     26 H10A         3.2110    25.9610    44.9880 h1         1 A1I       0.066200
     27 H13A         1.4990    25.9800    41.3440 h1         1 A1I       0.060950
     28 H13B         2.7980    24.7900    41.2370 h1         1 A1I       0.060950
     29 H15B         2.2770    23.7070    44.7560 h1         1 A1I       0.060950
     30 H15A         3.2640    23.3950    43.3360 h1         1 A1I       0.060950
     31 H17A         0.2890    22.9120    44.4030 hc         1 A1I       0.056200
     32 H17B         0.3190    24.3870    45.3310 hc         1 A1I       0.056200
     33 H22A         5.6750    26.2250    40.7950 h1         1 A1I       0.064200
     34 H22B         7.2160    26.2550    41.6210 h1         1 A1I       0.064200
     35 H9A          5.8460    30.5910    40.6880 hc         1 A1I       0.039367
     36 H9B          4.5840    30.3840    41.8940 hc         1 A1I       0.039367
     37 H9C          5.5590    31.8500    41.8770 hc         1 A1I       0.039367
     38 H12B         3.7370    27.0230    41.5130 h1         1 A1I       0.066200
     39 H12A         2.7800    27.3170    42.9530 h1         1 A1I       0.066200
     40 H19B        -1.9060    23.3420    45.4340 hc         1 A1I       0.042700
     41 H19A        -2.0440    24.8930    44.6170 hc         1 A1I       0.042700
     42 H19C        -2.0740    23.3980    43.6840 hc         1 A1I       0.042700
     43 BR8          9.2060    31.4480    45.6130 br         1 A1I      -0.107100
     44 C20          5.6030    25.7420    42.8970 c          1 A1I       0.594100
@<TRIPOS>BOND
     1     1    10 1   
     2     1    11 1   
     3     1    21 1   
     4     2     3 ar  
     5     2    12 ar  
     6     2    22 1   
     7     3     4 ar  
     8     3    43 1   
     9     4     5 ar  
    10     4    23 1   
    11     5    11 ar  
    12     5    24 1   
    13     6     8 1   
    14     6    14 1   
    15     6    25 1   
    16     6    26 1   
    17     7    15 1   
    18     7    16 1   
    19     7    27 1   
    20     7    28 1   
    21     8    16 1   
    22     8    29 1   
    23     8    30 1   
    24     9    17 1   
    25     9    19 1   
    26     9    31 1   
    27     9    32 1   
    28    10    33 1   
    29    10    34 1   
    30    10    44 1   
    31    11    12 ar  
    32    12    13 1   
    33    13    35 1   
    34    13    36 1   
    35    13    37 1   
    36    14    15 1   
    37    14    44 1   
    38    15    38 1   
    39    15    39 1   
    40    16    17 1   
    41    17    18 2   
    42    19    40 1   
    43    19    41 1   
    44    19    42 1   
    45    20    44 2   
@<TRIPOS>SUBSTRUCTURE
     1 A1I         1 TEMP              0 ****  ****    0 ROOT
