@<TRIPOS>MOLECULE
A1I
   35    38     1     0     0
SMALL
abcg2


@<TRIPOS>ATOM
      1 C1          22.0350    17.5140    -7.4370 c          1 A1I       0.556000
      2 C2          22.1580    18.8860    -6.7860 c6         1 A1I       0.018300
      3 C3          20.8180    19.6100    -6.7140 c6         1 A1I      -0.089400
      4 C4          19.8070    18.7190    -6.0130 c6         1 A1I      -0.165400
      5 C5          19.6850    17.3630    -6.6490 c          1 A1I       0.577000
      6 C6          23.2570    20.0370    -8.7240 ca         1 A1I       0.009800
      7 C7          24.4370    20.7750    -8.9380 cp         1 A1I      -0.079500
      8 C8          25.1310    20.8190    -7.6780 cp         1 A1I      -0.079500
      9 C9          24.3390    20.1070    -6.7580 ca         1 A1I       0.009800
     10 C15         26.7320    21.2400    -5.9520 ca         1 A1I      -0.142500
     11 O2          18.6910    16.6790    -6.5970 o          1 A1I      -0.507000
     12 N1          20.8130    16.8980    -7.3010 ns         1 A1I      -0.486500
     13 O1          22.9470    16.9770    -8.0150 o          1 A1I      -0.482000
     14 N2          23.2070    19.6460    -7.4010 na         1 A1I      -0.094600
     15 C17         24.7320    19.9600    -5.4310 ca         1 A1I      -0.142000
     16 C16         25.9330    20.5320    -5.0470 ca         1 A1I      -0.078500
     17 C14         26.3340    21.3870    -7.2690 ca         1 A1I      -0.051000
     18 C13         24.7260    21.2830   -10.2010 ca         1 A1I      -0.051000
     19 C12         23.8370    21.0500   -11.2360 ca         1 A1I      -0.142500
     20 C11         22.6710    20.3110   -11.0130 ca         1 A1I      -0.078500
     21 C10         22.3630    19.7960    -9.7650 ca         1 A1I      -0.142000
     22 H1          22.4650    18.6790    -5.7550 h1         1 A1I       0.087700
     23 H2          20.9440    20.5390    -6.1590 hc         1 A1I       0.071700
     24 H3          20.4590    19.8760    -7.7090 hc         1 A1I       0.071700
     25 H4          18.8190    19.1770    -5.9900 hc         1 A1I       0.083200
     26 H5          20.1060    18.5610    -4.9710 hc         1 A1I       0.083200
     27 H6          27.6640    21.6740    -5.6170 ha         1 A1I       0.115000
     28 H7          20.7390    15.9730    -7.7120 hn         1 A1I       0.332500
     29 H8          24.1350    19.4180    -4.7080 ha         1 A1I       0.113000
     30 H9          26.2590    20.4280    -4.0200 ha         1 A1I       0.112000
     31 H10         26.9490    21.9340    -7.9730 ha         1 A1I       0.116500
     32 H11         25.6320    21.8510   -10.3700 ha         1 A1I       0.116500
     33 H12         24.0440    21.4380   -12.2240 ha         1 A1I       0.115000
     34 H13         21.9880    20.1340   -11.8340 ha         1 A1I       0.112000
     35 H14         21.4540    19.2250    -9.6300 ha         1 A1I       0.113000
@<TRIPOS>BOND
     1     1     2 1   
     2     1    12 1   
     3     1    13 2   
     4     2     3 1   
     5     2    14 1   
     6     2    22 1   
     7     3     4 1   
     8     3    23 1   
     9     3    24 1   
    10     4     5 1   
    11     4    25 1   
    12     4    26 1   
    13     5    11 2   
    14     5    12 1   
    15     6     7 ar  
    16     6    14 1   
    17     6    21 ar  
    18     7     8 1   
    19     7    18 ar  
    20     8     9 ar  
    21     8    17 ar  
    22     9    14 1   
    23     9    15 ar  
    24    10    16 ar  
    25    10    17 ar  
    26    10    27 1   
    27    12    28 1   
    28    15    16 ar  
    29    15    29 1   
    30    16    30 1   
    31    17    31 1   
    32    18    19 ar  
    33    18    32 1   
    34    19    20 ar  
    35    19    33 1   
    36    20    21 ar  
    37    20    34 1   
    38    21    35 1   
@<TRIPOS>SUBSTRUCTURE
     1 A1I         1 TEMP              0 ****  ****    0 ROOT
