@<TRIPOS>MOLECULE
A1I
   36    38     1     0     0
SMALL
abcg2


@<TRIPOS>ATOM
      1 CAF        -17.3090    14.1630     4.2480 ca         1 A1I      -0.030000
      2 CAC        -18.1330    13.0840     3.9950 ca         1 A1I      -0.208000
      3 SAV        -19.2590    12.8660     2.6870 ss         1 A1I      -0.043200
      4 CAB        -19.6540    11.2820     3.3570 cc         1 A1I       0.673100
      5 NAA        -20.5620    10.5190     2.7510 nv         1 A1I      -1.040200
      6 NAE        -19.0150    10.9510     4.4370 nd         1 A1I      -0.647100
      7 CAD        -18.1530    11.9410     4.8160 ca         1 A1I       0.173400
      8 CAI        -17.3020    11.9030     5.9210 ca         1 A1I      -0.095000
      9 CAH        -16.4680    12.9740     6.1730 ca         1 A1I      -0.049000
     10 CAG        -16.4680    14.1120     5.3580 ca         1 A1I      -0.168600
     11 CAJ        -15.5230    15.2170     5.6940 c          1 A1I       0.612700
     12 OAK        -14.4870    15.0010     6.3090 o          1 A1I      -0.604100
     13 NAL        -15.8750    16.4480     5.2820 ns         1 A1I      -0.500900
     14 CAM        -15.0800    17.6230     5.5550 c3         1 A1I       0.109000
     15 CAN        -15.1680    18.1080     7.0080 c3         1 A1I      -0.063100
     16 CAO        -16.5870    18.3210     7.4430 ca         1 A1I      -0.069300
     17 CAP        -17.2520    19.5030     7.1330 ca         1 A1I      -0.102000
     18 CAQ        -18.5820    19.6810     7.4820 ca         1 A1I       0.118000
     19 CLAU       -19.3680    21.1630     7.0880 cl         1 A1I      -0.175000
     20 CAR        -19.2690    18.6720     8.1470 ca         1 A1I       0.114000
     21 CLAW       -20.9220    18.8760     8.5900 cl         1 A1I      -0.174000
     22 CAS        -18.6160    17.4910     8.4620 ca         1 A1I      -0.095000
     23 CAT        -17.2860    17.3210     8.1120 ca         1 A1I      -0.098000
     24 H1         -17.3050    15.0120     3.5750 ha         1 A1I       0.121000
     25 H2         -21.0200    10.7960     1.9010 hn         1 A1I       0.507000
     26 H3         -20.7750     9.6110     3.1270 hn         1 A1I       0.507000
     27 H4         -17.2980    11.0340     6.5660 ha         1 A1I       0.135000
     28 H5         -15.8050    12.9350     7.0270 ha         1 A1I       0.136000
     29 H6         -16.8090    16.6000     4.9380 hn         1 A1I       0.317500
     30 H7         -14.0370    17.4260     5.3050 h1         1 A1I       0.056200
     31 H8         -15.4280    18.4080     4.8840 h1         1 A1I       0.056200
     32 H9         -14.6840    17.3830     7.6620 hc         1 A1I       0.067200
     33 H10        -14.6000    19.0380     7.0840 hc         1 A1I       0.067200
     34 H11        -16.7300    20.2970     6.6140 ha         1 A1I       0.129000
     35 H12        -19.1480    16.7070     8.9820 ha         1 A1I       0.134000
     36 H13        -16.7880    16.3960     8.3740 ha         1 A1I       0.129000
@<TRIPOS>BOND
     1     1     2 ar  
     2     1    10 ar  
     3     1    24 1   
     4     2     3 1   
     5     2     7 ar  
     6     3     4 1   
     7     4     5 1   
     8     4     6 2   
     9     5    25 1   
    10     5    26 1   
    11     6     7 1   
    12     7     8 ar  
    13     8     9 ar  
    14     8    27 1   
    15     9    10 ar  
    16     9    28 1   
    17    10    11 1   
    18    11    12 2   
    19    11    13 1   
    20    13    14 1   
    21    13    29 1   
    22    14    15 1   
    23    14    30 1   
    24    14    31 1   
    25    15    16 1   
    26    15    32 1   
    27    15    33 1   
    28    16    17 ar  
    29    16    23 ar  
    30    17    18 ar  
    31    17    34 1   
    32    18    19 1   
    33    18    20 ar  
    34    20    21 1   
    35    20    22 ar  
    36    22    23 ar  
    37    22    35 1   
    38    23    36 1   
@<TRIPOS>SUBSTRUCTURE
     1 A1I         1 TEMP              0 ****  ****    0 ROOT
