@<TRIPOS>MOLECULE
A1I
   63    67     1     0     0
SMALL
abcg2


@<TRIPOS>ATOM
      1 N1          40.2700   -22.6750    -4.3870 ns         1 A1I      -0.501900
      2 C3          39.5630   -17.0700    -8.7040 c3         1 A1I       0.034900
      3 C4          40.6950   -18.0070    -9.0700 ca         1 A1I      -0.019300
      4 C5          40.4600   -19.2700    -9.6340 ca         1 A1I      -0.064000
      5 C6          41.5540   -20.0430    -9.9430 ca         1 A1I       0.037100
      6 C7          42.9360   -21.5050   -10.8580 c5         1 A1I       0.372600
      7 C10         42.0040   -17.5980    -8.8350 ca         1 A1I      -0.111000
      8 C11         39.2520   -17.1070    -7.2210 ca         1 A1I      -0.037300
      9 C12         39.0490   -15.8920    -6.5260 ca         1 A1I      -0.105000
     10 C13         38.7150   -15.8820    -5.1990 ca         1 A1I      -0.104000
     11 C14         38.5620   -17.0900    -4.4860 ca         1 A1I      -0.071000
     12 C15         38.7590   -18.3140    -5.1700 ca         1 A1I       0.005000
     13 C16         38.6160   -19.5370    -4.4720 ca         1 A1I      -0.191000
     14 C17         38.3100   -19.5410    -3.1350 ca         1 A1I       0.129100
     15 C18         38.4960   -21.8900    -2.9460 c3         1 A1I       0.077600
     16 C19         39.9850   -21.9650    -3.2870 c          1 A1I       0.566100
     17 C20         41.5970   -22.7300    -4.9770 c6         1 A1I       0.107700
     18 C21         41.7400   -23.9900    -5.8230 c6         1 A1I      -0.091400
     19 C23         43.3850   -22.8000    -7.3160 c6         1 A1I      -0.078400
     20 C27         38.2270   -17.1310    -3.1110 ca         1 A1I      -0.068000
     21 C28         39.1050   -18.2880    -6.5390 ca         1 A1I      -0.117000
     22 C2          38.2820   -17.3060    -9.5060 c3         1 A1I      -0.207400
     23 C22         43.1110   -24.0520    -6.4890 c6         1 A1I      -0.069900
     24 C24         43.2520   -21.5440    -6.4640 c6         1 A1I      -0.069900
     25 C25         41.8800   -21.4740    -5.8020 c6         1 A1I      -0.091400
     26 C26         38.1060   -18.3170    -2.4500 ca         1 A1I      -0.133000
     27 C8          42.8500   -19.6160    -9.7180 ca         1 A1I       0.025100
     28 C9          43.1100   -18.3920    -9.1520 ca         1 A1I      -0.105000
     29 O1          37.7190   -17.8890   -11.7400 o          1 A1I      -0.730500
     30 O2          39.2670   -16.3130   -11.4330 o          1 A1I      -0.730500
     31 O3          41.5830   -21.2900   -10.4840 os         1 A1I      -0.349100
     32 O4          43.7190   -20.5820   -10.1170 os         1 A1I      -0.361100
     33 O5          38.1700   -20.6490    -2.3740 os         1 A1I      -0.323100
     34 O6          40.8180   -21.4280    -2.5770 o          1 A1I      -0.578100
     35 HN1         39.5040   -22.9820    -4.9680 hn         1 A1I       0.306500
     36 HC3         39.9040   -16.0590    -8.9380 hc         1 A1I       0.079700
     37 HC5         39.4590   -19.6250    -9.8400 ha         1 A1I       0.155000
     38 H72         43.2300   -22.5240   -10.6100 h2         1 A1I       0.051200
     39 H71         43.0580   -21.3190   -11.9320 h2         1 A1I       0.051200
     40 HC10        42.1780   -16.6190    -8.4040 ha         1 A1I       0.112000
     41 HC12        39.1660   -14.9550    -7.0590 ha         1 A1I       0.117000
     42 HC13        38.5690   -14.9420    -4.6790 ha         1 A1I       0.102000
     43 HC16        38.7650   -20.4500    -5.0340 ha         1 A1I       0.110000
     44 H182        37.8640   -22.1120    -3.8130 h1         1 A1I       0.062200
     45 H181        38.2730   -22.6400    -2.1840 h1         1 A1I       0.062200
     46 HC20        42.3200   -22.7810    -4.1580 h1         1 A1I       0.072700
     47 H211        41.5770   -24.8730    -5.2000 hc         1 A1I       0.047950
     48 H212        40.9620   -23.9980    -6.5960 hc         1 A1I       0.047950
     49 H231        44.3780   -22.8530    -7.7670 hc         1 A1I       0.045200
     50 H232        42.6660   -22.7530    -8.1410 hc         1 A1I       0.045200
     51 HC27        38.0720   -16.2000    -2.5780 ha         1 A1I       0.107000
     52 HC28        39.2610   -19.2340    -7.0470 ha         1 A1I       0.117000
     53 H22         37.5420   -16.5660    -9.1800 hc         1 A1I       0.026200
     54 H21         37.8470   -18.2770    -9.2550 hc         1 A1I       0.026200
     55 H221        43.8840   -24.1580    -5.7210 hc         1 A1I       0.041200
     56 H222        43.1730   -24.9440    -7.1160 hc         1 A1I       0.041200
     57 H242        44.0290   -21.5430    -5.6920 hc         1 A1I       0.041200
     58 H241        43.4160   -20.6500    -7.0690 hc         1 A1I       0.041200
     59 H252        41.1040   -21.3700    -6.5700 hc         1 A1I       0.047950
     60 H251        41.8100   -20.5910    -5.1620 hc         1 A1I       0.047950
     61 HC26        37.8590   -18.3400    -1.3960 ha         1 A1I       0.118000
     62 HC9         44.1200   -18.0500    -8.9680 ha         1 A1I       0.116000
     63 C1          38.4480   -17.1640   -11.0340 c          1 A1I       0.717000
@<TRIPOS>BOND
     1     1    16 1   
     2     1    17 1   
     3     1    35 1   
     4     2     3 1   
     5     2     8 1   
     6     2    22 1   
     7     2    36 1   
     8     3     4 ar  
     9     3     7 ar  
    10     4     5 ar  
    11     4    37 1   
    12     5    27 ar  
    13     5    31 1   
    14     6    31 1   
    15     6    32 1   
    16     6    38 1   
    17     6    39 1   
    18     7    28 ar  
    19     7    40 1   
    20     8     9 ar  
    21     8    21 ar  
    22     9    10 ar  
    23     9    41 1   
    24    10    11 ar  
    25    10    42 1   
    26    11    12 ar  
    27    11    20 ar  
    28    12    13 ar  
    29    12    21 ar  
    30    13    14 ar  
    31    13    43 1   
    32    14    26 ar  
    33    14    33 1   
    34    15    16 1   
    35    15    33 1   
    36    15    44 1   
    37    15    45 1   
    38    16    34 2   
    39    17    18 1   
    40    17    25 1   
    41    17    46 1   
    42    18    23 1   
    43    18    47 1   
    44    18    48 1   
    45    19    23 1   
    46    19    24 1   
    47    19    49 1   
    48    19    50 1   
    49    20    26 ar  
    50    20    51 1   
    51    21    52 1   
    52    22    53 1   
    53    22    54 1   
    54    22    63 1   
    55    23    55 1   
    56    23    56 1   
    57    24    25 1   
    58    24    57 1   
    59    24    58 1   
    60    25    59 1   
    61    25    60 1   
    62    26    61 1   
    63    27    28 ar  
    64    27    32 1   
    65    28    62 1   
    66    29    63 1   
    67    30    63 1   
@<TRIPOS>SUBSTRUCTURE
     1 A1I         1 TEMP              0 ****  ****    0 ROOT
