@<TRIPOS>MOLECULE
A1I
   53    55     1     0     0
SMALL
abcg2


@<TRIPOS>ATOM
      1 C1         -38.9130    23.8440     3.4350 c          1 A1I       0.565100
      2 C2         -40.6520    23.9970     5.2020 c3         1 A1I       0.129700
      3 C3         -39.9030    24.9250     6.2040 c3         1 A1I      -0.081400
      4 C4         -40.4500    26.3430     6.3430 c3         1 A1I      -0.067900
      5 C5         -41.8260    26.4400     7.0120 c3         1 A1I      -0.071900
      6 C6         -42.7670    25.2760     6.7160 c3         1 A1I      -0.071900
      7 C7         -43.0130    24.9750     5.2400 c3         1 A1I      -0.067900
      8 C8         -41.7580    24.6900     4.4000 c3         1 A1I      -0.081400
      9 C9         -38.0110    22.8500     2.7000 c3         1 A1I       0.076600
     10 C10        -35.9280    23.9130     3.0540 ca         1 A1I       0.129100
     11 C11        -35.9890    23.7790     4.4190 ca         1 A1I      -0.191000
     12 C12        -34.9530    24.3000     5.2330 ca         1 A1I       0.008000
     13 C13        -35.0080    24.2100     6.6440 ca         1 A1I      -0.134000
     14 C14        -34.0190    24.7310     7.4400 ca         1 A1I      -0.029300
     15 C15        -34.1190    24.7060     8.9380 c3         1 A1I      -0.025100
     16 C16        -34.6160    26.0450     9.4810 c3         1 A1I      -0.205400
     17 C17        -34.7290    26.1450    11.0160 c          1 A1I       0.719000
     18 C18        -32.9110    25.3600     6.8220 ca         1 A1I      -0.103000
     19 C19        -32.8230    25.4590     5.4610 ca         1 A1I      -0.106000
     20 C20        -33.8430    24.9400     4.6320 ca         1 A1I      -0.076000
     21 C21        -33.8040    25.0420     3.2210 ca         1 A1I      -0.066000
     22 C22        -34.8160    24.5490     2.4510 ca         1 A1I      -0.140000
     23 N1         -39.7120    23.2790     4.3470 ns         1 A1I      -0.513900
     24 O1         -38.8920    25.0340     3.1660 o          1 A1I      -0.571100
     25 O2         -36.8640    23.4690     2.1860 os         1 A1I      -0.323100
     26 O3         -34.4780    25.1210    11.6830 o          1 A1I      -0.738000
     27 O4         -35.0710    27.2600    11.4590 o          1 A1I      -0.738000
     28 HC2        -41.1320    23.2010     5.7750 h1         1 A1I       0.036700
     29 H31        -39.8900    24.4430     7.1850 hc         1 A1I       0.052200
     30 H32        -38.8570    25.0000     5.9020 hc         1 A1I       0.052200
     31 H41        -39.7340    26.9260     6.9270 hc         1 A1I       0.040450
     32 H42        -40.4710    26.8210     5.3620 hc         1 A1I       0.040450
     33 H51        -41.6950    26.4930     8.0960 hc         1 A1I       0.034200
     34 H52        -42.3010    27.3820     6.7210 hc         1 A1I       0.034200
     35 H62        -42.3870    24.3760     7.2100 hc         1 A1I       0.034200
     36 H61        -43.7300    25.4750     7.1930 hc         1 A1I       0.034200
     37 H72        -43.6750    24.1070     5.1870 hc         1 A1I       0.040450
     38 H71        -43.5630    25.8020     4.7840 hc         1 A1I       0.040450
     39 H82        -41.3840    25.6070     3.9470 hc         1 A1I       0.052200
     40 H81        -42.0370    24.0390     3.5680 hc         1 A1I       0.052200
     41 H92        -37.7570    21.9910     3.3320 h1         1 A1I       0.059200
     42 H91        -38.5570    22.4630     1.8370 h1         1 A1I       0.059200
     43 HC11       -36.8190    23.2930     4.9160 ha         1 A1I       0.109000
     44 HC13       -35.8650    23.7240     7.1000 ha         1 A1I       0.111000
     45 H151       -34.7920    23.9060     9.2520 hc         1 A1I       0.051700
     46 H152       -33.1410    24.4780     9.3690 hc         1 A1I       0.051700
     47 H161       -33.9620    26.8500     9.1300 hc         1 A1I       0.021700
     48 H162       -35.5970    26.2670     9.0470 hc         1 A1I       0.021700
     49 HC18       -32.1210    25.7670     7.4430 ha         1 A1I       0.118000
     50 HC19       -31.9680    25.9420     5.0010 ha         1 A1I       0.100000
     51 HC21       -32.9570    25.5270     2.7510 ha         1 A1I       0.106000
     52 HC22       -34.7820    24.6390     1.3720 ha         1 A1I       0.116000
     53 HN1        -39.6050    22.2930     4.5210 hn         1 A1I       0.306500
@<TRIPOS>BOND
     1     1     9 1   
     2     1    23 1   
     3     1    24 2   
     4     2     3 1   
     5     2     8 1   
     6     2    23 1   
     7     2    28 1   
     8     3     4 1   
     9     3    29 1   
    10     3    30 1   
    11     4     5 1   
    12     4    31 1   
    13     4    32 1   
    14     5     6 1   
    15     5    33 1   
    16     5    34 1   
    17     6     7 1   
    18     6    35 1   
    19     6    36 1   
    20     7     8 1   
    21     7    37 1   
    22     7    38 1   
    23     8    39 1   
    24     8    40 1   
    25     9    25 1   
    26     9    41 1   
    27     9    42 1   
    28    10    11 ar  
    29    10    22 ar  
    30    10    25 1   
    31    11    12 ar  
    32    11    43 1   
    33    12    13 ar  
    34    12    20 ar  
    35    13    14 ar  
    36    13    44 1   
    37    14    15 1   
    38    14    18 ar  
    39    15    16 1   
    40    15    45 1   
    41    15    46 1   
    42    16    17 1   
    43    16    47 1   
    44    16    48 1   
    45    17    26 1   
    46    17    27 1   
    47    18    19 ar  
    48    18    49 1   
    49    19    20 ar  
    50    19    50 1   
    51    20    21 ar  
    52    21    22 ar  
    53    21    51 1   
    54    22    52 1   
    55    23    53 1   
@<TRIPOS>SUBSTRUCTURE
     1 A1I         1 TEMP              0 ****  ****    0 ROOT
