@<TRIPOS>MOLECULE
A1I
   36    38     1     0     0
SMALL
abcg2


@<TRIPOS>ATOM
      1 CAF          7.1940   -14.4420    14.6630 ca         1 A1I       0.000000
      2 CAC          8.3180   -13.6430    14.7020 ca         1 A1I      -0.210000
      3 SAV          9.9860   -14.1100    14.5420 ss         1 A1I      -0.026200
      4 CAB         10.4290   -12.4130    14.7250 cc         1 A1I       0.659100
      5 NAA         11.7180   -12.0630    14.7200 nv         1 A1I      -1.027200
      6 NAE          9.4430   -11.5870    14.8900 nd         1 A1I      -0.644100
      7 CAD          8.2470   -12.2490    14.8840 ca         1 A1I       0.169400
      8 CAI          6.9910   -11.6630    15.0310 ca         1 A1I      -0.093000
      9 CAH          5.8610   -12.4600    15.0060 ca         1 A1I      -0.075000
     10 CAG          5.9450   -13.8470    14.8310 ca         1 A1I      -0.170600
     11 CAJ          4.7450   -14.7340    14.7710 c          1 A1I       0.614700
     12 OAK          4.7880   -15.8220    14.2090 o          1 A1I      -0.604100
     13 NAL          3.6290   -14.2680    15.3610 ns         1 A1I      -0.503900
     14 CAM          2.3830   -14.9980    15.3710 c3         1 A1I       0.105000
     15 CAN          2.3150   -16.0690    16.4650 c3         1 A1I      -0.059100
     16 CAO          0.9720   -16.7420    16.4660 ca         1 A1I      -0.070300
     17 CAP          0.7790   -17.9370    15.7790 ca         1 A1I      -0.096000
     18 CAQ         -0.4780   -18.5220    15.7540 ca         1 A1I       0.122000
     19 CLAU        -0.6970   -20.0190    14.9040 cl         1 A1I      -0.205000
     20 CAR         -1.5610   -17.9410    16.3930 ca         1 A1I      -0.104000
     21 CAS         -1.3650   -16.7490    17.0760 ca         1 A1I      -0.102000
     22 CAT         -0.1130   -16.1550    17.1130 ca         1 A1I      -0.111000
     23 H1           7.2750   -15.5110    14.5130 ha         1 A1I       0.144000
     24 H2          12.4350   -12.7020    14.4240 hn         1 A1I       0.499500
     25 H3          11.9470   -11.0830    14.7020 hn         1 A1I       0.499500
     26 H4           6.9070   -10.5920    15.1550 ha         1 A1I       0.133000
     27 H5           4.8980   -11.9750    15.0990 ha         1 A1I       0.112000
     28 H6           3.6850   -13.4480    15.9410 hn         1 A1I       0.314500
     29 H7           1.5810   -14.2740    15.5160 h1         1 A1I       0.057700
     30 H8           2.2270   -15.4570    14.3940 h1         1 A1I       0.057700
     31 H9           3.1070   -16.8010    16.3040 hc         1 A1I       0.059200
     32 H10          2.4970   -15.5990    17.4350 hc         1 A1I       0.059200
     33 H11          1.6110   -18.4100    15.2710 ha         1 A1I       0.135000
     34 H12         -2.5360   -18.4080    16.3640 ha         1 A1I       0.129000
     35 H13         -2.2000   -16.2840    17.5840 ha         1 A1I       0.117000
     36 H14          0.0260   -15.2260    17.6540 ha         1 A1I       0.113000
@<TRIPOS>BOND
     1     1     2 ar  
     2     1    10 ar  
     3     1    23 1   
     4     2     3 1   
     5     2     7 ar  
     6     3     4 1   
     7     4     5 1   
     8     4     6 2   
     9     5    24 1   
    10     5    25 1   
    11     6     7 1   
    12     7     8 ar  
    13     8     9 ar  
    14     8    26 1   
    15     9    10 ar  
    16     9    27 1   
    17    10    11 1   
    18    11    12 2   
    19    11    13 1   
    20    13    14 1   
    21    13    28 1   
    22    14    15 1   
    23    14    29 1   
    24    14    30 1   
    25    15    16 1   
    26    15    31 1   
    27    15    32 1   
    28    16    17 ar  
    29    16    22 ar  
    30    17    18 ar  
    31    17    33 1   
    32    18    19 1   
    33    18    20 ar  
    34    20    21 ar  
    35    20    34 1   
    36    21    22 ar  
    37    21    35 1   
    38    22    36 1   
@<TRIPOS>SUBSTRUCTURE
     1 A1I         1 TEMP              0 ****  ****    0 ROOT
