@<TRIPOS>MOLECULE
A1I
   41    43     1     0     0
SMALL
abcg2


@<TRIPOS>ATOM
      1 C10         16.4010   -10.3120   -42.4890 cc         1 A1I       0.543800
      2 C01         15.5480    -5.3340   -37.5240 c3         1 A1I       0.147900
      3 C03         16.4230    -7.3130   -38.4900 ca         1 A1I       0.136100
      4 C04         17.3910    -8.3200   -38.4550 ca         1 A1I      -0.161500
      5 C05         17.3610    -9.3530   -39.3700 ca         1 A1I      -0.076500
      6 C06         16.3780    -9.4050   -40.3600 ca         1 A1I       0.111400
      7 C07         15.4080    -8.4080   -40.3820 ca         1 A1I      -0.076500
      8 C08         15.4260    -7.3690   -39.4590 ca         1 A1I      -0.161500
      9 C12         16.4600   -11.0610   -44.7230 c          1 A1I       0.587200
     10 C14         16.5830    -9.5960   -44.9080 cc         1 A1I      -0.123600
     11 C16         16.6450    -9.0650   -46.1390 cf         1 A1I      -0.032200
     12 C17         16.7400    -7.6880   -46.5770 ca         1 A1I      -0.080800
     13 C18         16.5320    -7.4410   -47.9440 ca         1 A1I      -0.098000
     14 C19         16.5790    -6.1650   -48.4640 ca         1 A1I       0.114100
     15 C20         16.8560    -5.0810   -47.6100 ca         1 A1I       0.073100
     16 C22         17.1530    -2.7300   -47.4310 c3         1 A1I       0.156900
     17 C23         17.0820    -5.3160   -46.2610 ca         1 A1I      -0.166000
     18 C24         17.0230    -6.6030   -45.7470 ca         1 A1I      -0.073000
     19 N09         16.3650   -10.4890   -41.2440 nf         1 A1I      -0.612100
     20 N11         16.3560   -11.3440   -43.3890 ns         1 A1I      -0.430400
     21 O13         16.4500   -11.8950   -45.6000 o          1 A1I      -0.503000
     22 O21         16.8820    -3.8810   -48.2100 os         1 A1I      -0.363100
     23 O25         16.3630    -5.9850   -49.7800 oh         1 A1I      -0.531100
     24 S15         16.5600    -8.7710   -43.3590 ss         1 A1I      -0.219800
     25 H1          15.8080    -4.6760   -36.6980 h1         1 A1I       0.040700
     26 H2          15.5390    -4.7480   -38.4480 h1         1 A1I       0.040700
     27 H3          14.5450    -5.7340   -37.3520 h1         1 A1I       0.040700
     28 H4          18.1650    -8.2900   -37.6980 ha         1 A1I       0.124500
     29 H5          18.1110   -10.1330   -39.3240 ha         1 A1I       0.125000
     30 H6          14.6050    -8.4460   -41.1080 ha         1 A1I       0.125000
     31 H7          14.6460    -6.6220   -39.5130 ha         1 A1I       0.124500
     32 H8          16.5940    -9.7960   -46.9410 ha         1 A1I       0.202000
     33 H10         16.3200    -8.2670   -48.6130 ha         1 A1I       0.135000
     34 H11         17.1270    -1.8840   -48.1120 h1         1 A1I       0.045367
     35 H12         16.3990    -2.5850   -46.6540 h1         1 A1I       0.045367
     36 H13         18.1400    -2.7820   -46.9660 h1         1 A1I       0.045367
     37 H14         17.3120    -4.4990   -45.5900 ha         1 A1I       0.121000
     38 H15         17.2320    -6.7290   -44.6940 ha         1 A1I       0.126000
     39 H17         16.4240    -5.0490   -50.0060 ho         1 A1I       0.483000
     40 H9          16.2660   -12.2960   -43.0570 hn         1 A1I       0.355500
     41 O02         16.5260    -6.3510   -37.5520 os         1 A1I      -0.339100
@<TRIPOS>BOND
     1     1    19 2   
     2     1    20 1   
     3     1    24 1   
     4     2    25 1   
     5     2    26 1   
     6     2    27 1   
     7     2    41 1   
     8     3     4 ar  
     9     3     8 ar  
    10     3    41 1   
    11     4     5 ar  
    12     4    28 1   
    13     5     6 ar  
    14     5    29 1   
    15     6     7 ar  
    16     6    19 1   
    17     7     8 ar  
    18     7    30 1   
    19     8    31 1   
    20     9    10 1   
    21     9    20 1   
    22     9    21 2   
    23    10    11 2   
    24    10    24 1   
    25    11    12 1   
    26    11    32 1   
    27    12    13 ar  
    28    12    18 ar  
    29    13    14 ar  
    30    13    33 1   
    31    14    15 ar  
    32    14    23 1   
    33    15    17 ar  
    34    15    22 1   
    35    16    22 1   
    36    16    34 1   
    37    16    35 1   
    38    16    36 1   
    39    17    18 ar  
    40    17    37 1   
    41    18    38 1   
    42    20    40 1   
    43    23    39 1   
@<TRIPOS>SUBSTRUCTURE
     1 A1I         1 TEMP              0 ****  ****    0 ROOT
