@<TRIPOS>MOLECULE
A1I
   54    57     1     0     0
SMALL
abcg2


@<TRIPOS>ATOM
      1 C10         23.8770    40.1490    42.0390 ca         1 A1I      -0.097500
      2 C13         25.5740    42.0840    43.0590 ca         1 A1I      -0.115500
      3 C15         20.6760    43.2870    40.3560 c5         1 A1I       0.160800
      4 C20         14.5260    42.5410    39.1080 ca         1 A1I      -0.041000
      5 C21         13.3830    42.1870    39.7670 ca         1 A1I      -0.110000
      6 C22         13.3700    41.1050    40.6790 ca         1 A1I       0.003000
      7 C24         12.2190    39.6670    42.2400 ca         1 A1I      -0.086000
      8 C26         14.5590    39.2910    41.8070 ca         1 A1I      -0.085000
      9 C28         15.7410    40.7570    40.2150 ca         1 A1I       0.019000
     10 C01         17.2350    44.8880    39.2510 c3         1 A1I       0.179100
     11 C03         18.1800    43.2580    40.8240 c3         1 A1I       0.200800
     12 C04         19.5300    43.8460    41.2190 c5         1 A1I      -0.068700
     13 C05         19.8980    43.4220    42.6550 c5         1 A1I      -0.081400
     14 C06         20.9420    42.3360    42.4470 c5         1 A1I       0.156800
     15 C08         22.5930    41.8680    40.7210 c3         1 A1I       0.212100
     16 C09         23.6940    41.4760    41.6690 ca         1 A1I      -0.085300
     17 C11         24.9000    39.7850    42.9080 ca         1 A1I      -0.115500
     18 C12         25.7530    40.7530    43.4190 ca         1 A1I      -0.110000
     19 C14         24.5530    42.4420    42.1920 ca         1 A1I      -0.097500
     20 C19         15.7140    41.8140    39.3460 ca         1 A1I      -0.301500
     21 C23         12.1980    40.7220    41.3690 ca         1 A1I      -0.111000
     22 C25         13.4100    38.9440    42.4610 ca         1 A1I      -0.112000
     23 C27         14.5670    40.3790    40.9030 ca         1 A1I      -0.067000
     24 N02         17.8230    43.5670    39.4370 n3         1 A1I      -0.721500
     25 N07         21.6840    42.8290    41.3010 n3         1 A1I      -0.717600
     26 O17         16.8600    42.8580    37.2350 o          1 A1I      -0.535000
     27 O18         18.1560    41.2220    38.6270 o          1 A1I      -0.535000
     28 S16         17.2090    42.3220    38.5400 sy         1 A1I       1.154600
     29 H101        23.2100    39.3890    41.6470 ha         1 A1I       0.116000
     30 H131        26.2360    42.8450    43.4530 ha         1 A1I       0.110500
     31 H151        21.0970    44.0260    39.6710 h1         1 A1I       0.050700
     32 H152        20.3020    42.4560    39.7380 h1         1 A1I       0.050700
     33 H211        12.4660    42.7360    39.5890 ha         1 A1I       0.118000
     34 H241        11.3170    39.3810    42.7650 ha         1 A1I       0.117000
     35 H261        15.4770    38.7390    41.9730 ha         1 A1I       0.119000
     36 H281        16.6500    40.1940    40.3850 ha         1 A1I       0.136000
     37 H013        17.1440    45.1290    38.1970 h1         1 A1I       0.052700
     38 H012        16.2580    44.9850    39.7340 h1         1 A1I       0.052700
     39 H011        17.9050    45.6200    39.6970 h1         1 A1I       0.052700
     40 H032        18.2280    42.1770    40.9630 h1         1 A1I       0.049200
     41 H031        17.3950    43.6260    41.4930 h1         1 A1I       0.049200
     42 H041        19.4850    44.9350    41.1490 hc         1 A1I       0.061700
     43 H051        20.3310    44.2580    43.2040 hc         1 A1I       0.050200
     44 H052        19.0360    43.0710    43.2260 hc         1 A1I       0.050200
     45 H061        21.5900    42.1960    43.3140 h1         1 A1I       0.040700
     46 H062        20.4580    41.3660    42.2390 h1         1 A1I       0.040700
     47 H081        23.0330    42.3170    39.8240 h1         1 A1I       0.042200
     48 H082        22.0610    40.9620    40.3840 h1         1 A1I       0.042200
     49 H111        25.0260    38.7470    43.1850 ha         1 A1I       0.110500
     50 H121        26.5510    40.4740    44.0940 ha         1 A1I       0.110000
     51 H141        24.4180    43.4810    41.9170 ha         1 A1I       0.116000
     52 H231        11.2820    41.2760    41.1990 ha         1 A1I       0.119000
     53 H251        13.4090    38.1110    43.1530 ha         1 A1I       0.118000
     54 H201        14.5120    43.3620    38.4050 ha         1 A1I       0.131000
@<TRIPOS>BOND
     1     1    16 ar  
     2     1    17 ar  
     3     1    29 1   
     4     2    18 ar  
     5     2    19 ar  
     6     2    30 1   
     7     3    12 1   
     8     3    25 1   
     9     3    31 1   
    10     3    32 1   
    11     4     5 ar  
    12     4    20 ar  
    13     4    54 1   
    14     5     6 ar  
    15     5    33 1   
    16     6    21 ar  
    17     6    23 ar  
    18     7    21 ar  
    19     7    22 ar  
    20     7    34 1   
    21     8    22 ar  
    22     8    23 ar  
    23     8    35 1   
    24     9    20 ar  
    25     9    23 ar  
    26     9    36 1   
    27    10    24 1   
    28    10    37 1   
    29    10    38 1   
    30    10    39 1   
    31    11    12 1   
    32    11    24 1   
    33    11    40 1   
    34    11    41 1   
    35    12    13 1   
    36    12    42 1   
    37    13    14 1   
    38    13    43 1   
    39    13    44 1   
    40    14    25 1   
    41    14    45 1   
    42    14    46 1   
    43    15    16 1   
    44    15    25 1   
    45    15    47 1   
    46    15    48 1   
    47    16    19 ar  
    48    17    18 ar  
    49    17    49 1   
    50    18    50 1   
    51    19    51 1   
    52    20    28 1   
    53    21    52 1   
    54    22    53 1   
    55    24    28 1   
    56    26    28 2   
    57    27    28 2   
@<TRIPOS>SUBSTRUCTURE
     1 A1I         1 TEMP              0 ****  ****    0 ROOT
