@<TRIPOS>MOLECULE
A1I
   26    26     1     0     0
SMALL
abcg2


@<TRIPOS>ATOM
      1 CAN         56.6000   -13.0780    -8.5260 c          1 A1I       0.609900
      2 C           56.4040   -13.0000    -5.2850 c          1 A1I       0.590100
      3 CA          55.5270   -12.4880    -6.4380 c6         1 A1I       0.014700
      4 CB          54.0450   -12.3320    -6.0760 c6         1 A1I      -0.079400
      5 NAK         52.8450   -13.9140    -8.4610 n7         1 A1I      -0.617900
      6 CAH         53.3300   -13.6730    -5.9890 c6         1 A1I      -0.100400
      7 CAJ         54.9800   -14.6270    -7.5860 c6         1 A1I       0.099000
      8 CAO         53.4960   -14.4720    -7.2840 c6         1 A1I       0.130500
      9 NAA         56.3510   -12.2580    -4.1680 nt         1 A1I      -0.608000
     10 N           55.6670   -13.3450    -7.5940 n          1 A1I      -0.406800
     11 O           57.1040   -13.9920    -5.3940 o          1 A1I      -0.597100
     12 OAL         51.4800   -13.6970    -8.1980 oh         1 A1I      -0.483300
     13 OAC         57.3430   -12.1140    -8.5310 o          1 A1I      -0.597100
     14 H1          56.6180   -13.8350    -9.3260 h5         1 A1I       0.016200
     15 H4          55.9160   -11.5030    -6.7070 h1         1 A1I       0.093700
     16 H8          53.5790   -11.7030    -6.8380 hc         1 A1I       0.051200
     17 H7          53.9390   -11.7830    -5.1400 hc         1 A1I       0.051200
     18 H12         53.2200   -12.9900    -8.6550 hn         1 A1I       0.420000
     19 H9          52.2750   -13.5210    -5.7620 hc         1 A1I       0.059700
     20 H10         53.7410   -14.2630    -5.1630 hc         1 A1I       0.059700
     21 H3          55.1200   -15.1020    -8.5580 h1         1 A1I       0.066700
     22 H2          55.4220   -15.2840    -6.8340 h1         1 A1I       0.066700
     23 H11         53.0920   -15.4780    -7.1400 h1         1 A1I       0.075700
     24 H6          56.9450   -12.4850    -3.3870 hn         1 A1I       0.313000
     25 H5          55.8530   -11.3850    -4.1240 hn         1 A1I       0.313000
     26 H13         51.0320   -14.3020    -8.7970 ho         1 A1I       0.457000
@<TRIPOS>BOND
     1     1    10 1   
     2     1    13 2   
     3     1    14 1   
     4     2     3 1   
     5     2     9 1   
     6     2    11 2   
     7     3     4 1   
     8     3    10 1   
     9     3    15 1   
    10     4     6 1   
    11     4    16 1   
    12     4    17 1   
    13     5     8 1   
    14     5    12 1   
    15     5    18 1   
    16     6     8 1   
    17     6    19 1   
    18     6    20 1   
    19     7     8 1   
    20     7    10 1   
    21     7    21 1   
    22     7    22 1   
    23     8    23 1   
    24     9    24 1   
    25     9    25 1   
    26    12    26 1   
@<TRIPOS>SUBSTRUCTURE
     1 A1I         1 TEMP              0 ****  ****    0 ROOT
