@<TRIPOS>MOLECULE
A1I
   29    31     1     0     0
SMALL
abcg2


@<TRIPOS>ATOM
      1 C10        -25.9780     6.4810    -7.5350 ca         1 A1I      -0.101000
      2 C13        -24.6910     8.1410    -5.7230 ca         1 A1I      -0.126000
      3 C15        -23.2770    11.5680    -2.4210 ca         1 A1I      -0.066000
      4 C02        -23.1840    12.2940    -4.6950 ca         1 A1I       0.146100
      5 C03        -23.4580    10.9970    -5.1120 ca         1 A1I      -0.124000
      6 C04        -23.6500     9.9770    -4.1830 ca         1 A1I       0.001200
      7 C05        -23.9400     8.6250    -4.6450 cc         1 A1I      -0.047300
      8 C08        -24.5980     6.7260    -5.6100 ca         1 A1I      -0.070000
      9 C09        -25.2540     5.8860    -6.5400 ca         1 A1I      -0.082000
     10 C11        -26.0870     7.8960    -7.6390 ca         1 A1I      -0.130000
     11 C12        -25.4600     8.7270    -6.7520 ca         1 A1I      -0.057000
     12 C14        -23.5600    10.2730    -2.8230 ca         1 A1I      -0.145000
     13 C16        -23.0860    12.6020    -3.3320 ca         1 A1I      -0.162300
     14 N06        -23.4930     7.5240    -4.0210 na         1 A1I       0.022500
     15 N07        -23.8550     6.3700    -4.5590 nc         1 A1I      -0.277400
     16 H5         -26.4910     5.8660    -8.2630 ha         1 A1I       0.110000
     17 H9         -23.2130    11.7900    -1.3630 ha         1 A1I       0.114000
     18 H11        -21.8110    14.3480    -3.2300 hc         1 A1I       0.044367
     19 H12        -23.5340    14.7160    -3.2180 hc         1 A1I       0.044367
     20 H10        -22.7650    14.0520    -1.7870 hc         1 A1I       0.044367
     21 H2         -23.4950    10.7880    -6.1740 ha         1 A1I       0.139000
     22 H4         -25.1830     4.8090    -6.4590 ha         1 A1I       0.125000
     23 H6         -26.6840     8.3160    -8.4380 ha         1 A1I       0.111000
     24 H7         -25.5600     9.8010    -6.8370 ha         1 A1I       0.117000
     25 H8         -23.7320     9.5080    -2.0770 ha         1 A1I       0.114000
     26 H3         -22.8880     7.5120    -3.2110 hn         1 A1I       0.371000
     27 H1         -22.8030    14.0820    -5.2890 ho         1 A1I       0.470000
     28 O01        -23.0130    13.2180    -5.6610 oh         1 A1I      -0.536100
     29 C17        -22.7840    13.9990    -2.8740 c3         1 A1I      -0.051800
@<TRIPOS>BOND
     1     1     9 ar  
     2     1    10 ar  
     3     1    16 1   
     4     2     7 2   
     5     2     8 ar  
     6     2    11 ar  
     7     3    12 ar  
     8     3    13 ar  
     9     3    17 1   
    10     4     5 ar  
    11     4    13 ar  
    12     4    28 1   
    13     5     6 ar  
    14     5    21 1   
    15     6     7 1   
    16     6    12 ar  
    17     7    14 1   
    18     8     9 ar  
    19     8    15 2   
    20     9    22 1   
    21    10    11 ar  
    22    10    23 1   
    23    11    24 1   
    24    12    25 1   
    25    13    29 1   
    26    14    15 1   
    27    14    26 1   
    28    18    29 1   
    29    19    29 1   
    30    20    29 1   
    31    27    28 1   
@<TRIPOS>SUBSTRUCTURE
     1 A1I         1 TEMP              0 ****  ****    0 ROOT
