@<TRIPOS>MOLECULE
A1I
   40    42     1     0     0
SMALL
abcg2


@<TRIPOS>ATOM
      1 C01         17.4280    -2.8370   -47.4720 c3         1 A1I       0.155900
      2 C03         17.0970    -5.1850   -47.6160 ca         1 A1I       0.072100
      3 C04         16.8030    -6.2780   -48.4540 ca         1 A1I       0.114100
      4 C06         16.7360    -7.5450   -47.9160 ca         1 A1I      -0.099000
      5 C07         16.9410    -7.7730   -46.5450 ca         1 A1I      -0.081800
      6 C08         17.2420    -6.6820   -45.7310 ca         1 A1I      -0.073000
      7 C09         17.3220    -5.4030   -46.2640 ca         1 A1I      -0.166000
      8 C10         16.8230    -9.1420   -46.0840 ce         1 A1I      -0.031200
      9 C11         16.7170    -9.6440   -44.8450 cd         1 A1I      -0.124600
     10 C13         16.4360   -10.3000   -42.4190 cc         1 A1I       0.546800
     11 C15         16.5830   -11.1030   -44.6290 c          1 A1I       0.587200
     12 C18         16.3280    -9.3330   -40.3220 ca         1 A1I       0.152400
     13 C19         17.3080    -9.2320   -39.3360 ca         1 A1I      -0.100000
     14 C20         17.3240    -8.1680   -38.4410 ca         1 A1I      -0.065300
     15 C21         16.3210    -7.2030   -38.5320 ca         1 A1I      -0.116000
     16 C22         15.3320    -7.3070   -39.4980 ca         1 A1I      -0.096000
     17 C23         15.3260    -8.3650   -40.3960 ca         1 A1I      -0.133000
     18 C24         18.4110    -8.0520   -37.4130 c3         1 A1I      -0.047800
     19 N14         16.4270   -11.3540   -43.2930 ns         1 A1I      -0.430400
     20 N17         16.3460   -10.4430   -41.1720 nf         1 A1I      -0.619100
     21 O02         17.1400    -3.9940   -48.2340 os         1 A1I      -0.363100
     22 O05         16.5880    -6.1130   -49.7720 oh         1 A1I      -0.532100
     23 O16         16.6020   -11.9570   -45.4860 o          1 A1I      -0.502000
     24 S12         16.6360    -8.7820   -43.3180 ss         1 A1I      -0.214800
     25 H1          17.4050    -1.9990   -48.1630 h1         1 A1I       0.045033
     26 H2          16.6810    -2.6750   -46.6910 h1         1 A1I       0.045033
     27 H3          18.4180    -2.8930   -47.0130 h1         1 A1I       0.045033
     28 H4          16.5130    -8.3770   -48.5720 ha         1 A1I       0.135000
     29 H5          17.4550    -6.7980   -44.6780 ha         1 A1I       0.126000
     30 H6          17.5670    -4.5800   -45.6060 ha         1 A1I       0.122000
     31 H7          16.7960    -9.8890   -46.8720 ha         1 A1I       0.202000
     32 H9          18.0690   -10.0020   -39.2740 ha         1 A1I       0.124000
     33 H10         16.3080    -6.3730   -37.8360 ha         1 A1I       0.113000
     34 H11         14.5490    -6.5610   -39.5510 ha         1 A1I       0.114000
     35 H12         14.5330    -8.4550   -41.1290 ha         1 A1I       0.123000
     36 H13         19.2530    -7.4760   -37.8000 hc         1 A1I       0.043367
     37 H14         18.0590    -7.5450   -36.5150 hc         1 A1I       0.043367
     38 H15         18.7940    -9.0300   -37.1220 hc         1 A1I       0.043367
     39 H17         16.6660    -5.1810   -50.0130 ho         1 A1I       0.483000
     40 H8          16.3230   -12.2970   -42.9410 hn         1 A1I       0.355500
@<TRIPOS>BOND
     1     1    21 1   
     2     1    25 1   
     3     1    26 1   
     4     1    27 1   
     5     2     3 ar  
     6     2     7 ar  
     7     2    21 1   
     8     3     4 ar  
     9     3    22 1   
    10     4     5 ar  
    11     4    28 1   
    12     5     6 ar  
    13     5     8 1   
    14     6     7 ar  
    15     6    29 1   
    16     7    30 1   
    17     8     9 2   
    18     8    31 1   
    19     9    11 1   
    20     9    24 1   
    21    10    19 1   
    22    10    20 2   
    23    10    24 1   
    24    11    19 1   
    25    11    23 2   
    26    12    13 ar  
    27    12    17 ar  
    28    12    20 1   
    29    13    14 ar  
    30    13    32 1   
    31    14    15 ar  
    32    14    18 1   
    33    15    16 ar  
    34    15    33 1   
    35    16    17 ar  
    36    16    34 1   
    37    17    35 1   
    38    18    36 1   
    39    18    37 1   
    40    18    38 1   
    41    19    40 1   
    42    22    39 1   
@<TRIPOS>SUBSTRUCTURE
     1 A1I         1 TEMP              0 ****  ****    0 ROOT
