@<TRIPOS>MOLECULE
A1I
   40    42     1     0     0
SMALL
abcg2


@<TRIPOS>ATOM
      1 C10         16.9530    -9.0160   -45.9410 ce         1 A1I      -0.030200
      2 C11         16.7740    -9.4910   -44.6990 cd         1 A1I      -0.125600
      3 C01         18.0470    -2.7760   -47.3170 c3         1 A1I       0.155900
      4 C03         17.8840    -5.1430   -47.4310 ca         1 A1I       0.072100
      5 C04         18.0730    -6.2940   -48.2200 ca         1 A1I       0.114100
      6 C06         17.7460    -7.5300   -47.7040 ca         1 A1I      -0.098000
      7 C07         17.2490    -7.6720   -46.3980 ca         1 A1I      -0.081800
      8 C08         17.0600    -6.5210   -45.6340 ca         1 A1I      -0.075000
      9 C09         17.3710    -5.2700   -46.1480 ca         1 A1I      -0.165000
     10 C13         16.5810   -10.1100   -42.2580 cc         1 A1I       0.539800
     11 C15         16.4890   -10.9260   -44.4640 c          1 A1I       0.588200
     12 C18         16.7500    -9.0770   -40.2160 ca         1 A1I       0.138400
     13 C19         15.6850    -8.4620   -39.5440 ca         1 A1I      -0.063300
     14 C20         14.2860    -8.9740   -39.7090 c3         1 A1I      -0.044800
     15 C21         15.9650    -7.3640   -38.7370 ca         1 A1I      -0.104000
     16 C22         17.2580    -6.8800   -38.5880 ca         1 A1I      -0.111000
     17 C23         18.3050    -7.5030   -39.2520 ca         1 A1I      -0.103000
     18 C24         18.0500    -8.5980   -40.0640 ca         1 A1I      -0.117000
     19 N14         16.4010   -11.1600   -43.1180 ns         1 A1I      -0.430400
     20 N17         16.5020   -10.2080   -41.0050 nf         1 A1I      -0.612100
     21 O05         18.5620    -6.2120   -49.4710 oh         1 A1I      -0.531100
     22 O16         16.3570   -11.7760   -45.3150 o          1 A1I      -0.502000
     23 S12         16.9020    -8.6270   -43.1760 ss         1 A1I      -0.211800
     24 H1          16.8880    -9.7660   -46.7240 ha         1 A1I       0.202000
     25 H3          18.3800    -1.9810   -47.9790 h1         1 A1I       0.045367
     26 H4          17.0000    -2.6090   -47.0580 h1         1 A1I       0.045367
     27 H5          18.6490    -2.7550   -46.4050 h1         1 A1I       0.045367
     28 H6          17.8890    -8.4080   -48.3240 ha         1 A1I       0.135000
     29 H7          16.6290    -6.5610   -44.6430 ha         1 A1I       0.127000
     30 H8          17.2000    -4.3970   -45.5330 ha         1 A1I       0.122000
     31 H9          14.2150   -10.0340   -39.4610 hc         1 A1I       0.046033
     32 H10         13.5930    -8.4310   -39.0680 hc         1 A1I       0.046033
     33 H11         13.9380    -8.8670   -40.7390 hc         1 A1I       0.046033
     34 H12         15.1490    -6.8770   -38.2170 ha         1 A1I       0.113000
     35 H13         17.4460    -6.0250   -37.9520 ha         1 A1I       0.114000
     36 H14         19.3190    -7.1410   -39.1390 ha         1 A1I       0.115000
     37 H15         18.8640    -9.1010   -40.5720 ha         1 A1I       0.122000
     38 H17         18.7370    -5.2910   -49.7030 ho         1 A1I       0.483000
     39 H2          16.2140   -12.0850   -42.7520 hn         1 A1I       0.355500
     40 O02         18.2220    -3.9880   -48.0270 os         1 A1I      -0.363100
@<TRIPOS>BOND
     1     1     2 2   
     2     1     7 1   
     3     1    24 1   
     4     2    11 1   
     5     2    23 1   
     6     3    25 1   
     7     3    26 1   
     8     3    27 1   
     9     3    40 1   
    10     4     5 ar  
    11     4     9 ar  
    12     4    40 1   
    13     5     6 ar  
    14     5    21 1   
    15     6     7 ar  
    16     6    28 1   
    17     7     8 ar  
    18     8     9 ar  
    19     8    29 1   
    20     9    30 1   
    21    10    19 1   
    22    10    20 2   
    23    10    23 1   
    24    11    19 1   
    25    11    22 2   
    26    12    13 ar  
    27    12    18 ar  
    28    12    20 1   
    29    13    14 1   
    30    13    15 ar  
    31    14    31 1   
    32    14    32 1   
    33    14    33 1   
    34    15    16 ar  
    35    15    34 1   
    36    16    17 ar  
    37    16    35 1   
    38    17    18 ar  
    39    17    36 1   
    40    18    37 1   
    41    19    39 1   
    42    21    38 1   
@<TRIPOS>SUBSTRUCTURE
     1 A1I         1 TEMP              0 ****  ****    0 ROOT
