@<TRIPOS>MOLECULE
A1I
   50    54     1     0     0
SMALL
abcg2


@<TRIPOS>ATOM
      1 C1          17.9790   -21.5190    16.4040 ca         1 A1I      -0.153000
      2 C2          17.4630   -20.2620    16.6880 ca         1 A1I      -0.072000
      3 C3          16.8620   -20.0120    17.9140 ca         1 A1I      -0.129000
      4 C7          15.9890   -23.7410    20.1520 ca         1 A1I      -0.080000
      5 C8          15.9510   -24.7420    21.1170 ca         1 A1I       0.304000
      6 C9          18.2130   -25.0120    21.0500 ca         1 A1I       0.306900
      7 C10         18.3280   -24.0210    20.0940 ca         1 A1I       0.146000
      8 C11         14.6670   -25.1720    21.6690 cc         1 A1I       0.397500
      9 C12         12.6350   -25.7280    21.8390 cd         1 A1I       0.219300
     10 C13         11.1790   -26.0340    21.8270 c5         1 A1I       0.100700
     11 C14         12.2620   -26.7090    23.9650 c5         1 A1I       0.196300
     12 C15         13.2090   -26.1150    22.9940 cc         1 A1I      -0.211300
     13 C16         15.4550   -25.8250    23.9620 ca         1 A1I       0.229500
     14 C19         16.9530   -24.7870    25.2720 ca         1 A1I       0.141900
     15 C21          8.6580   -27.0230    22.7830 c3         1 A1I      -0.152400
     16 C22          7.4050   -27.5960    23.4220 c3         1 A1I      -0.077100
     17 O            9.8390   -27.5920    24.8000 o          1 A1I      -0.603100
     18 N2          11.0310   -26.6390    23.1620 n          1 A1I      -0.436800
     19 N1          13.5350   -25.1480    21.0080 nd         1 A1I      -0.631000
     20 N3          14.5220   -25.7560    22.9100 na         1 A1I      -0.144000
     21 N5          16.0970   -24.7140    24.2670 nb         1 A1I      -0.176000
     22 N4          17.2060   -25.8540    26.0150 nb         1 A1I      -0.169000
     23 C18         16.5350   -26.9560    25.7060 ca         1 A1I       0.118900
     24 C17         15.6290   -27.0070    24.6610 ca         1 A1I      -0.205000
     25 N           17.0410   -25.3700    21.5450 nb         1 A1I      -0.647000
     26 F1          19.5410   -23.6800    19.6550 f          1 A1I      -0.157000
     27 C6          17.2090   -23.3620    19.6090 cp         1 A1I      -0.038000
     28 C5          17.3040   -22.2860    18.6060 cp         1 A1I      -0.092000
     29 C           17.8890   -22.5040    17.3660 ca         1 A1I       0.199000
     30 F           18.3570   -23.7280    17.0850 f          1 A1I      -0.170000
     31 C4          16.7820   -21.0200    18.8620 ca         1 A1I      -0.063000
     32 H1          18.4380   -21.7350    15.4480 ha         1 A1I       0.136000
     33 H2          17.5310   -19.4800    15.9430 ha         1 A1I       0.120000
     34 H3          16.4590   -19.0330    18.1340 ha         1 A1I       0.122000
     35 H4          15.0760   -23.2630    19.8220 ha         1 A1I       0.151000
     36 H5          19.0950   -25.5250    21.4180 h4         1 A1I       0.040100
     37 H8          17.4930   -23.8780    25.5160 h5         1 A1I       0.058100
     38 H9           8.8680   -27.5360    21.8390 hc         1 A1I       0.057200
     39 H10          8.4970   -25.9750    22.5120 hc         1 A1I       0.057200
     40 H11          6.5660   -27.5080    22.7330 hc         1 A1I       0.043033
     41 H12          7.5240   -28.6510    23.6680 hc         1 A1I       0.043033
     42 H13          7.1410   -27.0670    24.3370 hc         1 A1I       0.043033
     43 H14         16.7310   -27.8380    26.3040 h4         1 A1I       0.033100
     44 H15         15.1100   -27.9190    24.4030 ha         1 A1I       0.150000
     45 H16         16.3210   -20.8260    19.8220 ha         1 A1I       0.123000
     46 H6          10.5570   -25.1410    21.7210 h1         1 A1I       0.062700
     47 H7          10.8970   -26.7340    21.0350 h1         1 A1I       0.062700
     48 H17         12.5020   -27.7400    24.2380 h1         1 A1I       0.070200
     49 H18         12.1750   -26.1330    24.8910 h1         1 A1I       0.070200
     50 C20          9.8780   -27.1160    23.6740 c          1 A1I       0.605100
@<TRIPOS>BOND
     1     1     2 ar  
     2     1    29 ar  
     3     1    32 1   
     4     2     3 ar  
     5     2    33 1   
     6     3    31 ar  
     7     3    34 1   
     8     4     5 ar  
     9     4    27 ar  
    10     4    35 1   
    11     5     8 1   
    12     5    25 ar  
    13     6     7 ar  
    14     6    25 ar  
    15     6    36 1   
    16     7    26 1   
    17     7    27 ar  
    18     8    19 2   
    19     8    20 1   
    20     9    10 1   
    21     9    12 2   
    22     9    19 1   
    23    10    18 1   
    24    10    46 1   
    25    10    47 1   
    26    11    12 1   
    27    11    18 1   
    28    11    48 1   
    29    11    49 1   
    30    12    20 1   
    31    13    20 1   
    32    13    21 ar  
    33    13    24 ar  
    34    14    21 ar  
    35    14    22 ar  
    36    14    37 1   
    37    15    16 1   
    38    15    38 1   
    39    15    39 1   
    40    15    50 1   
    41    16    40 1   
    42    16    41 1   
    43    16    42 1   
    44    17    50 2   
    45    18    50 1   
    46    22    23 ar  
    47    23    24 ar  
    48    23    43 1   
    49    24    44 1   
    50    27    28 1   
    51    28    29 ar  
    52    28    31 ar  
    53    29    30 1   
    54    31    45 1   
@<TRIPOS>SUBSTRUCTURE
     1 A1I         1 TEMP              0 ****  ****    0 ROOT
