@<TRIPOS>MOLECULE
A1I
   63    69     1     0     0
SMALL
abcg2


@<TRIPOS>ATOM
      1 C5          29.5320    21.3270   -11.3360 ca         1 A1I       0.525000
      2 C6          30.6450    20.8020   -11.9960 ca         1 A1I      -0.052900
      3 C7          30.5970    20.4190   -13.3060 ca         1 A1I      -0.029000
      4 C15         43.0300    22.5730    -6.1500 ca         1 A1I      -0.175000
      5 C20         39.5110    21.3120    -5.9140 cc         1 A1I       0.606200
      6 C22         35.7900    19.4080    -4.4750 ca         1 A1I      -0.085000
      7 C24         37.9580    20.1600    -5.0580 ca         1 A1I       0.072400
      8 C26         36.0100    21.2510    -6.0540 ca         1 A1I      -0.067000
      9 C1          29.3570    20.5960   -13.9270 ca         1 A1I      -0.165000
     10 C11         33.5700    20.0270    -7.7370 c6         1 A1I       0.076500
     11 C14         41.9050    22.0110    -5.5510 ca         1 A1I       0.032700
     12 C16         42.9820    23.0190    -7.4560 ca         1 A1I       0.354900
     13 C18         40.8190    22.4020    -7.6710 ca         1 A1I       0.371900
     14 C19         40.7630    21.9130    -6.3610 ca         1 A1I      -0.179900
     15 C2          28.3100    21.1270   -13.1870 ca         1 A1I       0.448000
     16 C23         37.1610    19.2750    -4.3410 ca         1 A1I      -0.051000
     17 C25         37.3710    21.1120    -5.8820 ca         1 A1I       0.018100
     18 C27         35.2180    20.3700    -5.3230 ca         1 A1I      -0.130600
     19 C30         31.6580    20.8840    -6.5210 c6         1 A1I       0.076500
     20 C31         31.3950    21.8820    -7.6380 c6         1 A1I       0.216300
     21 C33         33.3160    21.0030    -8.8750 c6         1 A1I       0.216300
     22 C34         41.9680    21.5680    -4.1180 c5         1 A1I      -0.043400
     23 C35         42.5310    22.6010    -3.1340 c5         1 A1I      -0.070900
     24 C36         42.8350    21.7440    -1.9100 c5         1 A1I      -0.080400
     25 C37         43.4830    20.4890    -2.5040 c5         1 A1I      -0.080400
     26 C38         42.8500    20.3140    -3.9010 c5         1 A1I      -0.070900
     27 C9          31.1220    21.2780    -9.9600 cc         1 A1I       0.799500
     28 N10         29.8640    21.6210   -10.0450 nd         1 A1I      -0.724700
     29 N17         41.8920    22.9450    -8.2150 nb         1 A1I      -0.667000
     30 N21         39.3270    20.3170    -5.1160 nd         1 A1I      -0.567100
     31 N29         33.0720    20.5590    -6.4810 n          1 A1I      -0.415800
     32 N32         31.9100    21.3730    -8.8970 nh         1 A1I      -0.743600
     33 N4          28.3590    21.4950   -11.9210 nb         1 A1I      -0.618000
     34 O12         33.1660    20.6710    -4.2260 o          1 A1I      -0.577100
     35 O13         38.3730    21.8430    -6.4240 os         1 A1I      -0.277700
     36 O8          31.6630    20.7760   -11.0950 os         1 A1I      -0.299700
     37 CL3         26.7740    21.3410   -13.9730 cl         1 A1I      -0.162000
     38 H40         31.4430    20.0090   -13.8400 ha         1 A1I       0.139000
     39 H46         35.1390    18.7490    -3.9160 ha         1 A1I       0.135000
     40 H48         35.5840    22.0110    -6.6970 ha         1 A1I       0.138000
     41 H39         29.2180    20.3240   -14.9630 ha         1 A1I       0.143000
     42 H42         33.0550    19.0840    -7.9500 h1         1 A1I       0.068450
     43 H41         34.6330    19.8100    -7.6740 h1         1 A1I       0.068450
     44 H44         43.8620    23.4590    -7.9120 h4         1 A1I       0.024100
     45 H45         39.9460    22.3340    -8.3120 h4         1 A1I       0.029100
     46 H47         37.5920    18.5230    -3.6940 ha         1 A1I       0.141000
     47 H50         31.0690    19.9750    -6.6830 h1         1 A1I       0.068450
     48 H49         31.3520    21.3170    -5.5730 h1         1 A1I       0.068450
     49 H52         30.3280    22.0670    -7.7280 h1         1 A1I       0.073950
     50 H51         31.8890    22.8310    -7.4110 h1         1 A1I       0.073950
     51 H53         33.9180    21.9060    -8.7390 h1         1 A1I       0.073950
     52 H54         33.6120    20.5430    -9.8140 h1         1 A1I       0.073950
     53 H55         40.9640    21.3260    -3.7740 hc         1 A1I       0.079700
     54 H56         43.4530    23.0560    -3.5060 hc         1 A1I       0.047950
     55 H57         41.8240    23.4090    -2.9390 hc         1 A1I       0.047950
     56 H58         43.4720    22.2480    -1.1830 hc         1 A1I       0.044450
     57 H59         41.9020    21.4870    -1.4030 hc         1 A1I       0.044450
     58 H60         44.5590    20.6440    -2.6030 hc         1 A1I       0.044450
     59 H61         43.3470    19.6120    -1.8710 hc         1 A1I       0.044450
     60 H63         42.2440    19.4100    -3.9760 hc         1 A1I       0.047950
     61 H62         43.6230    20.2370    -4.6680 hc         1 A1I       0.047950
     62 C28         33.7300    20.5320    -5.3000 c          1 A1I       0.620700
     63 H43         43.9540    22.6700    -5.5950 ha         1 A1I       0.131000
@<TRIPOS>BOND
     1     1     2 ar  
     2     1    28 1   
     3     1    33 ar  
     4     2     3 ar  
     5     2    36 1   
     6     3     9 ar  
     7     3    38 1   
     8     4    11 ar  
     9     4    12 ar  
    10     4    63 1   
    11     5    14 1   
    12     5    30 2   
    13     5    35 1   
    14     6    16 ar  
    15     6    18 ar  
    16     6    39 1   
    17     7    16 ar  
    18     7    17 ar  
    19     7    30 1   
    20     8    17 ar  
    21     8    18 ar  
    22     8    40 1   
    23     9    15 ar  
    24     9    41 1   
    25    10    21 1   
    26    10    31 1   
    27    10    42 1   
    28    10    43 1   
    29    11    14 ar  
    30    11    22 1   
    31    12    29 ar  
    32    12    44 1   
    33    13    14 ar  
    34    13    29 ar  
    35    13    45 1   
    36    15    33 ar  
    37    15    37 1   
    38    16    46 1   
    39    17    35 1   
    40    18    62 1   
    41    19    20 1   
    42    19    31 1   
    43    19    47 1   
    44    19    48 1   
    45    20    32 1   
    46    20    49 1   
    47    20    50 1   
    48    21    32 1   
    49    21    51 1   
    50    21    52 1   
    51    22    23 1   
    52    22    26 1   
    53    22    53 1   
    54    23    24 1   
    55    23    54 1   
    56    23    55 1   
    57    24    25 1   
    58    24    56 1   
    59    24    57 1   
    60    25    26 1   
    61    25    58 1   
    62    25    59 1   
    63    26    60 1   
    64    26    61 1   
    65    27    28 2   
    66    27    32 1   
    67    27    36 1   
    68    31    62 1   
    69    34    62 2   
@<TRIPOS>SUBSTRUCTURE
     1 A1I         1 TEMP              0 ****  ****    0 ROOT
