@<TRIPOS>MOLECULE
A1I
   33    34     1     0     0
SMALL
abcg2


@<TRIPOS>ATOM
      1 C           -3.5580     2.0120    20.7910 c          1 A1I       0.562900
      2 O           -2.6000     1.7210    20.1310 o          1 A1I      -0.467100
      3 N           -4.9020     0.3060    19.6550 nh         1 A1I      -0.199700
      4 CA          -4.9240     1.3670    20.6520 c5         1 A1I      -0.100700
      5 CB          -5.3120     0.6420    21.9460 c5         1 A1I      -0.083400
      6 CG          -4.7050    -0.7440    21.7530 c5         1 A1I      -0.097400
      7 CD          -4.9540    -1.0280    20.2810 c5         1 A1I       0.037600
      8 C10         -4.7730     1.7340    17.7120 ce         1 A1I      -0.431600
      9 C11         -4.6690     1.7090    16.3570 cf         1 A1I       0.078800
     10 C12         -4.6080     2.7800    15.4000 ca         1 A1I      -0.181800
     11 C13         -4.6390     4.1550    15.7190 ca         1 A1I       0.220100
     12 C14         -4.5630     5.1050    14.7030 ca         1 A1I      -0.222000
     13 C15         -4.4600     4.7100    13.3820 ca         1 A1I       0.007000
     14 C16         -4.4300     3.3600    13.0410 ca         1 A1I      -0.148000
     15 C17         -4.5030     2.4190    14.0440 ca         1 A1I      -0.021000
     16 O18         -4.7400     4.5060    17.0030 oh         1 A1I      -0.534100
     17 H1          -3.5250     2.7870    21.5760 h4         1 A1I       0.034200
     18 HA          -5.6470     2.1460    20.3940 h1         1 A1I       0.115700
     19 HB3         -4.9440     1.1590    22.8320 hc         1 A1I       0.085200
     20 HB2         -6.3980     0.5870    22.0200 hc         1 A1I       0.085200
     21 HG2         -3.6350    -0.7340    21.9670 hc         1 A1I       0.088200
     22 HG3         -5.1670    -1.4960    22.3890 hc         1 A1I       0.088200
     23 HD3         -5.9490    -1.4440    20.1170 h1         1 A1I       0.088700
     24 HD2         -4.2170    -1.6820    19.8210 h1         1 A1I       0.088700
     25 H10         -4.8380     2.6510    18.2750 ha         1 A1I       0.227000
     26 H11         -4.6180     0.7230    15.9020 ha         1 A1I       0.174000
     27 H14         -4.5850     6.1600    14.9520 ha         1 A1I       0.136000
     28 H15         -4.4030     5.4650    12.6090 ha         1 A1I       0.138000
     29 H16         -4.3490     3.0540    12.0080 ha         1 A1I       0.144000
     30 H17         -4.4770     1.3660    13.7930 ha         1 A1I       0.124000
     31 H9          -4.7590    -0.4220    17.7830 h4         1 A1I       0.038800
     32 HO18        -4.7400     5.4660    17.1050 ho         1 A1I       0.492000
     33 C9          -4.8050     0.4850    18.3780 ce         1 A1I       0.430500
@<TRIPOS>BOND
     1     1     2 2   
     2     1     4 1   
     3     1    17 1   
     4     3     4 1   
     5     3     7 1   
     6     3    33 2   
     7     4     5 1   
     8     4    18 1   
     9     5     6 1   
    10     5    19 1   
    11     5    20 1   
    12     6     7 1   
    13     6    21 1   
    14     6    22 1   
    15     7    23 1   
    16     7    24 1   
    17     8     9 2   
    18     8    25 1   
    19     8    33 1   
    20     9    10 1   
    21     9    26 1   
    22    10    11 ar  
    23    10    15 ar  
    24    11    12 ar  
    25    11    16 1   
    26    12    13 ar  
    27    12    27 1   
    28    13    14 ar  
    29    13    28 1   
    30    14    15 ar  
    31    14    29 1   
    32    15    30 1   
    33    16    32 1   
    34    31    33 1   
@<TRIPOS>SUBSTRUCTURE
     1 A1I         1 TEMP              0 ****  ****    0 ROOT
