@<TRIPOS>MOLECULE
A1J
   31    31     1     0     0
SMALL
abcg2


@<TRIPOS>ATOM
      1 C4          -0.0710     0.6760     6.2140 c3         1 A1J       0.168600
      2 C5           1.8780    -0.4620     6.9870 c          1 A1J       0.593300
      3 C6           3.1830    -0.9870     6.5630 ce         1 A1J      -0.275200
      4 C7           3.9910    -1.6140     7.4300 cf         1 A1J      -0.073200
      5 C8           5.3010    -2.1930     7.1540 ca         1 A1J      -0.079800
      6 C10          7.1500    -2.7250     5.6840 ca         1 A1J      -0.115500
      7 C13          5.9860    -2.8220     8.2020 ca         1 A1J      -0.084000
      8 C1          -1.4140     0.7390     2.5500 c3         1 A1J      -0.090100
      9 C2          -0.8500     0.1540     3.8420 c3         1 A1J      -0.074400
     10 C3          -0.6120     1.2200     4.9100 c3         1 A1J      -0.079400
     11 O1           1.2460     0.1270     5.9600 os         1 A1J      -0.454100
     12 O2           1.4030    -0.5380     8.1070 o          1 A1J      -0.498000
     13 C9           5.9050    -2.1510     5.8880 ca         1 A1J      -0.084000
     14 C11          7.8190    -3.3510     6.7360 ca         1 A1J      -0.093000
     15 C12          7.2330    -3.3970     7.9960 ca         1 A1J      -0.115500
     16 H1           0.0210     1.4560     6.9700 h1         1 A1J       0.050200
     17 H2          -0.7060    -0.1190     6.6120 h1         1 A1J       0.050200
     18 H3           3.4450    -0.8400     5.5240 ha         1 A1J       0.198000
     19 H4           3.6430    -1.7140     8.4530 ha         1 A1J       0.192000
     20 H5           7.6040    -2.6870     4.7020 ha         1 A1J       0.116500
     21 H6           5.5280    -2.8580     9.1840 ha         1 A1J       0.116500
     22 H7          -1.5810    -0.0390     1.8020 hc         1 A1J       0.032033
     23 H8          -2.3670     1.2430     2.7300 hc         1 A1J       0.032033
     24 H9          -0.7270     1.4740     2.1210 hc         1 A1J       0.032033
     25 H10         -1.5380    -0.6000     4.2380 hc         1 A1J       0.044200
     26 H11          0.0890    -0.3640     3.6300 hc         1 A1J       0.044200
     27 H12          0.0710     1.9860     4.5300 hc         1 A1J       0.050200
     28 H13         -1.5550     1.7270     5.1380 hc         1 A1J       0.050200
     29 H14          5.4010    -1.6700     5.0610 ha         1 A1J       0.116500
     30 H15          8.7900    -3.7990     6.5710 ha         1 A1J       0.115000
     31 H16          7.7470    -3.8800     8.8180 ha         1 A1J       0.116500
@<TRIPOS>BOND
     1     1    10 1   
     2     1    11 1   
     3     1    16 1   
     4     1    17 1   
     5     2     3 1   
     6     2    11 1   
     7     2    12 2   
     8     3     4 2   
     9     3    18 1   
    10     4     5 1   
    11     4    19 1   
    12     5     7 ar  
    13     5    13 ar  
    14     6    13 ar  
    15     6    14 ar  
    16     6    20 1   
    17     7    15 ar  
    18     7    21 1   
    19     8     9 1   
    20     8    22 1   
    21     8    23 1   
    22     8    24 1   
    23     9    10 1   
    24     9    25 1   
    25     9    26 1   
    26    10    27 1   
    27    10    28 1   
    28    13    29 1   
    29    14    15 ar  
    30    14    30 1   
    31    15    31 1   
@<TRIPOS>SUBSTRUCTURE
     1 A1J         1 TEMP              0 ****  ****    0 ROOT
