@<TRIPOS>MOLECULE
A1J
   25    27     1     0     0
SMALL
abcg2


@<TRIPOS>ATOM
      1 C10         38.7300    -8.0900   -36.8680 cc         1 A1J      -0.137400
      2 C11         39.8110    -7.5230   -37.7350 c6         1 A1J      -0.038200
      3 C12         40.9480    -6.9890   -36.8450 c6         1 A1J       0.146800
      4 C14         40.2210    -8.1390   -34.8160 c6         1 A1J       0.211000
      5 C2          35.4820    -9.3440   -35.9010 ca         1 A1J      -0.028900
      6 C3          34.7080    -9.3030   -37.0470 ca         1 A1J      -0.061000
      7 C4          35.2620    -8.8330   -38.2490 ca         1 A1J      -0.144000
      8 C5          36.5790    -8.4050   -38.3200 ca         1 A1J      -0.048000
      9 C6          37.3710    -8.4420   -37.1660 ca         1 A1J      -0.083800
     10 C7          36.8030    -8.9180   -35.9460 ca         1 A1J      -0.022200
     11 C9          38.9340    -8.3620   -35.5420 cd         1 A1J      -0.096300
     12 N13         41.3270    -7.8920   -35.7490 n7         1 A1J      -0.841400
     13 N8          37.7730    -8.8550   -34.9790 na         1 A1J      -0.213700
     14 BR1         34.7500    -9.9820   -34.2490 br         1 A1J      -0.120100
     15 H11B        40.2010    -8.2860   -38.4190 hc         1 A1J       0.051700
     16 H11A        39.4260    -6.7140   -38.3630 hc         1 A1J       0.051700
     17 H12B        41.8350    -6.7910   -37.4490 h1         1 A1J       0.057700
     18 H12A        40.6380    -6.0410   -36.3960 h1         1 A1J       0.057700
     19 H14B        40.4720    -9.0010   -34.1930 h1         1 A1J       0.063200
     20 H14A        40.1250    -7.2810   -34.1410 h1         1 A1J       0.063200
     21 H3          33.6780    -9.6320   -37.0150 ha         1 A1J       0.127000
     22 H4          34.6380    -8.8090   -39.1330 ha         1 A1J       0.116000
     23 H5          36.9900    -8.0460   -39.2550 ha         1 A1J       0.118000
     24 H13B        41.6200    -8.7800   -36.1450 hn         1 A1J       0.409000
     25 H8          37.6620    -9.1430   -34.0210 hn         1 A1J       0.361000
@<TRIPOS>BOND
     1     1     2 1   
     2     1     9 1   
     3     1    11 2   
     4     2     3 1   
     5     2    15 1   
     6     2    16 1   
     7     3    12 1   
     8     3    17 1   
     9     3    18 1   
    10     4    11 1   
    11     4    12 1   
    12     4    19 1   
    13     4    20 1   
    14     5     6 ar  
    15     5    10 ar  
    16     5    14 1   
    17     6     7 ar  
    18     6    21 1   
    19     7     8 ar  
    20     7    22 1   
    21     8     9 ar  
    22     8    23 1   
    23     9    10 ar  
    24    10    13 1   
    25    11    13 1   
    26    12    24 1   
    27    13    25 1   
@<TRIPOS>SUBSTRUCTURE
     1 A1J         1 TEMP              0 ****  ****    0 ROOT
