@<TRIPOS>MOLECULE
A1J
   57    61     1     0     0
SMALL
abcg2


@<TRIPOS>ATOM
      1 C12         15.4470    -8.6110   -27.2750 ca         1 A1J      -0.435900
      2 C13         16.8300    -8.8740   -27.2800 ca         1 A1J       0.209500
      3 C16         15.0070    -8.9400   -28.5830 cc         1 A1J       0.405800
      4 C18         17.0620    -8.2390   -25.1570 ca         1 A1J       0.455900
      5 C20         17.3340    -7.5960   -22.7810 c5         1 A1J       0.296800
      6 C23         17.8710    -7.0750   -20.4710 c5         1 A1J      -0.063100
      7 C01          9.9360    -6.0120   -23.5990 c3         1 A1J       0.079900
      8 C03         12.4010    -6.2020   -22.9450 cc         1 A1J      -0.105300
      9 C04         12.3820    -5.5610   -21.5720 c3         1 A1J       0.017300
     10 C05         12.1060    -4.0490   -21.6930 c3         1 A1J      -0.085433
     11 C06         11.3380    -6.2270   -20.6570 c3         1 A1J      -0.085433
     12 C07         13.7650    -5.7370   -20.9230 c3         1 A1J      -0.085433
     13 C08         13.4890    -6.7510   -23.6080 cd         1 A1J      -0.221000
     14 C09         12.9850    -7.1870   -24.8470 cd         1 A1J       0.502900
     15 C11         14.9330    -8.1110   -26.0530 ca         1 A1J       0.495900
     16 C21         18.2140    -8.0560   -21.6100 c5         1 A1J       0.152300
     17 C24         17.5290    -5.8110   -21.2160 ca         1 A1J      -0.090300
     18 C25         17.2400    -6.1020   -22.5510 ca         1 A1J      -0.113300
     19 C26         16.8870    -5.0990   -23.4410 ca         1 A1J      -0.070000
     20 C27         16.8140    -3.7870   -22.9760 ca         1 A1J      -0.114000
     21 C28         17.0980    -3.4920   -21.6440 ca         1 A1J      -0.109000
     22 C29         17.4630    -4.5030   -20.7550 ca         1 A1J      -0.100000
     23 N02         11.3410    -6.3250   -23.7900 na         1 A1J       0.119800
     24 N10         13.6210    -7.7890   -25.9300 nu         1 A1J      -0.878800
     25 N14         17.1180    -9.3240   -28.5220 na         1 A1J      -0.183100
     26 N15         16.0100    -9.3680   -29.3260 nd         1 A1J      -0.530100
     27 N17         17.6750    -8.7040   -26.2570 nb         1 A1J      -0.305000
     28 N19         17.8340    -8.0360   -24.0630 nu         1 A1J      -0.914100
     29 N30         15.7490    -7.9440   -25.0200 nb         1 A1J      -0.341000
     30 N31         11.6830    -6.9360   -24.9570 nc         1 A1J      -0.586800
     31 O22         17.9610    -9.4240   -21.3250 oh         1 A1J      -0.649000
     32 H1          14.0130    -8.8810   -29.0000 h4         1 A1J       0.043800
     33 H2          16.3420    -8.0360   -22.6460 h1         1 A1J       0.105700
     34 H3          16.9980    -7.4550   -19.9290 hc         1 A1J       0.062700
     35 H4          18.6850    -6.9570   -19.7550 hc         1 A1J       0.062700
     36 H5           9.5010    -5.8350   -24.5800 h1         1 A1J       0.054700
     37 H6           9.4130    -6.8400   -23.1180 h1         1 A1J       0.054700
     38 H7           9.8240    -5.1180   -22.9960 h1         1 A1J       0.054700
     39 H8          12.1480    -3.5890   -20.7030 hc         1 A1J       0.039589
     40 H9          12.8610    -3.5750   -22.3230 hc         1 A1J       0.039589
     41 H10         11.1260    -3.8370   -22.1170 hc         1 A1J       0.039589
     42 H11         11.4130    -5.8010   -19.6540 hc         1 A1J       0.039589
     43 H12         10.3180    -6.0750   -21.0060 hc         1 A1J       0.039589
     44 H13         11.5190    -7.3010   -20.5860 hc         1 A1J       0.039589
     45 H14         13.7570    -5.2790   -19.9330 hc         1 A1J       0.039589
     46 H15         14.0200    -6.7920   -20.8080 hc         1 A1J       0.039589
     47 H16         14.5480    -5.2590   -21.5110 hc         1 A1J       0.039589
     48 H17         14.4990    -6.8080   -23.2650 ha         1 A1J       0.169000
     49 H18         19.2650    -7.9200   -21.8920 h1         1 A1J       0.036700
     50 H19         16.6660    -5.3320   -24.4740 ha         1 A1J       0.131000
     51 H20         16.5370    -2.9900   -23.6550 ha         1 A1J       0.115000
     52 H21         17.0390    -2.4680   -21.2970 ha         1 A1J       0.112000
     53 H22         17.6910    -4.2690   -19.7230 ha         1 A1J       0.114000
     54 H23         13.0320    -7.9430   -26.7350 hn         1 A1J       0.516000
     55 H24         18.0150    -9.6090   -28.8820 hn         1 A1J       0.383000
     56 H25         18.8250    -8.1850   -24.1740 hn         1 A1J       0.508000
     57 H26         18.6390    -9.7410   -20.7150 ho         1 A1J       0.446000
@<TRIPOS>BOND
     1     1     2 ar  
     2     1     3 1   
     3     1    15 ar  
     4     2    25 1   
     5     2    27 ar  
     6     3    26 2   
     7     3    32 1   
     8     4    27 ar  
     9     4    28 1   
    10     4    29 ar  
    11     5    16 1   
    12     5    18 1   
    13     5    28 1   
    14     5    33 1   
    15     6    16 1   
    16     6    17 1   
    17     6    34 1   
    18     6    35 1   
    19     7    23 1   
    20     7    36 1   
    21     7    37 1   
    22     7    38 1   
    23     8     9 1   
    24     8    13 2   
    25     8    23 1   
    26     9    10 1   
    27     9    11 1   
    28     9    12 1   
    29    10    39 1   
    30    10    40 1   
    31    10    41 1   
    32    11    42 1   
    33    11    43 1   
    34    11    44 1   
    35    12    45 1   
    36    12    46 1   
    37    12    47 1   
    38    13    14 1   
    39    13    48 1   
    40    14    24 1   
    41    14    30 2   
    42    15    24 1   
    43    15    29 ar  
    44    16    31 1   
    45    16    49 1   
    46    17    18 ar  
    47    17    22 ar  
    48    18    19 ar  
    49    19    20 ar  
    50    19    50 1   
    51    20    21 ar  
    52    20    51 1   
    53    21    22 ar  
    54    21    52 1   
    55    22    53 1   
    56    23    30 1   
    57    24    54 1   
    58    25    26 1   
    59    25    55 1   
    60    28    56 1   
    61    31    57 1   
@<TRIPOS>SUBSTRUCTURE
     1 A1J         1 TEMP              0 ****  ****    0 ROOT
