@<TRIPOS>MOLECULE
A1J
   25    24     1     0     0
SMALL
abcg2


@<TRIPOS>ATOM
      1 C           64.5580    18.0010   -13.2280 c          1 A1J       0.691000
      2 C50         63.9170    16.8820   -12.3750 c3         1 A1J       0.009600
      3 C51         65.3610    16.7170   -10.4870 c3         1 A1J       0.142600
      4 C52         64.4240    16.6140    -9.2860 c3         1 A1J       0.111600
      5 C53         65.7640    16.4920    -7.2980 c3         1 A1J       0.127600
      6 C54         64.8830    15.8350    -6.2360 c3         1 A1J       0.120600
      7 C55         66.3730    15.6290    -4.3860 c3         1 A1J       0.145900
      8 O           63.7230    18.7850   -13.7490 o          1 A1J      -0.733000
      9 O13         64.8140    16.0700   -11.6290 os         1 A1J      -0.460000
     10 O14         64.9710    17.3020    -8.1620 os         1 A1J      -0.464000
     11 O15         65.6070    14.9610    -5.3810 os         1 A1J      -0.465000
     12 H2          63.1640    17.3400   -11.7260 h1         1 A1J       0.023200
     13 H3          63.3910    16.2090   -13.0560 h1         1 A1J       0.023200
     14 H4          66.3080    16.2200   -10.2630 h1         1 A1J       0.052700
     15 H5          65.5750    17.7680   -10.6990 h1         1 A1J       0.052700
     16 H6          63.4660    17.0870    -9.5110 h1         1 A1J       0.042700
     17 H7          64.2330    15.5620    -9.0510 h1         1 A1J       0.042700
     18 H8          66.3050    15.7230    -7.8590 h1         1 A1J       0.046700
     19 H9          66.4990    17.1540    -6.8380 h1         1 A1J       0.046700
     20 H10         64.3770    16.6120    -5.6490 h1         1 A1J       0.049200
     21 H11         64.1210    15.2250    -6.7240 h1         1 A1J       0.049200
     22 H12         66.7730    14.8630    -3.7240 h1         1 A1J       0.025367
     23 H13         67.2050    16.1940    -4.8180 h1         1 A1J       0.025367
     24 H14         65.7440    16.3140    -3.8070 h1         1 A1J       0.025367
     25 OXT         65.8040    18.0320   -13.3530 o          1 A1J      -0.733000
@<TRIPOS>BOND
     1     1     2 1   
     2     1     8 1   
     3     1    25 1   
     4     2     9 1   
     5     2    12 1   
     6     2    13 1   
     7     3     4 1   
     8     3     9 1   
     9     3    14 1   
    10     3    15 1   
    11     4    10 1   
    12     4    16 1   
    13     4    17 1   
    14     5     6 1   
    15     5    10 1   
    16     5    18 1   
    17     5    19 1   
    18     6    11 1   
    19     6    20 1   
    20     6    21 1   
    21     7    11 1   
    22     7    22 1   
    23     7    23 1   
    24     7    24 1   
@<TRIPOS>SUBSTRUCTURE
     1 A1J         1 TEMP              0 ****  ****    0 ROOT
