@<TRIPOS>MOLECULE
A1J
   28    28     1     0     0
SMALL
abcg2


@<TRIPOS>ATOM
      1 C4          15.7290    13.2700    20.0640 c3         1 A1J      -0.085433
      2 C5          13.7390    12.7520    18.6000 c3         1 A1J       0.234800
      3 C7          11.5340    13.5090    19.4480 ca         1 A1J       0.612900
      4 C8          11.1370    14.0470    18.2060 ca         1 A1J      -0.236000
      5 C10          9.0020    14.5590    19.1830 ca         1 A1J      -0.230000
      6 N12         10.6970    13.4810    20.5040 nb         1 A1J      -0.755000
      7 C1          14.9220    10.8990    19.8500 c3         1 A1J      -0.085433
      8 C11          9.4750    13.9960    20.3590 ca         1 A1J       0.385900
      9 C2          15.0920    12.2400    19.1230 c3         1 A1J      -0.063000
     10 C3          15.9990    12.0370    17.9020 c3         1 A1J      -0.085433
     11 C9           9.8660    14.5740    18.0880 ca         1 A1J      -0.032000
     12 N6          12.7820    13.0050    19.6600 nu         1 A1J      -0.934100
     13 H4A         15.8580    14.2300    19.5580 hc         1 A1J       0.037478
     14 H4C         15.1180    13.4340    20.9530 hc         1 A1J       0.037478
     15 H4B         16.7120    12.9240    20.3920 hc         1 A1J       0.037478
     16 H5A         13.9110    13.6810    18.0500 h1         1 A1J       0.038200
     17 H5B         13.3390    12.0230    17.8820 h1         1 A1J       0.038200
     18 H8          11.8130    14.0470    17.3630 ha         1 A1J       0.119000
     19 H10          8.0000    14.9600    19.1250 ha         1 A1J       0.122000
     20 H1A         14.3310    10.9960    20.7640 hc         1 A1J       0.037478
     21 H1C         14.4340    10.1640    19.2060 hc         1 A1J       0.037478
     22 H1B         15.8990    10.5030    20.1390 hc         1 A1J       0.037478
     23 H11          8.8380    13.9510    21.2380 h4         1 A1J       0.013100
     24 H3C         16.1470    12.9760    17.3640 hc         1 A1J       0.037478
     25 H3B         16.9780    11.6660    18.2140 hc         1 A1J       0.037478
     26 H3A         15.5670    11.3110    17.2090 hc         1 A1J       0.037478
     27 H9           9.5450    14.9940    17.1420 ha         1 A1J       0.112000
     28 H6          12.8800    12.4820    20.5160 hn         1 A1J       0.494000
@<TRIPOS>BOND
     1     1     9 1   
     2     1    13 1   
     3     1    14 1   
     4     1    15 1   
     5     2     9 1   
     6     2    12 1   
     7     2    16 1   
     8     2    17 1   
     9     3     4 ar  
    10     3     6 ar  
    11     3    12 1   
    12     4    11 ar  
    13     4    18 1   
    14     5     8 ar  
    15     5    11 ar  
    16     5    19 1   
    17     6     8 ar  
    18     7     9 1   
    19     7    20 1   
    20     7    21 1   
    21     7    22 1   
    22     8    23 1   
    23     9    10 1   
    24    10    24 1   
    25    10    25 1   
    26    10    26 1   
    27    11    27 1   
    28    12    28 1   
@<TRIPOS>SUBSTRUCTURE
     1 A1J         1 TEMP              0 ****  ****    0 ROOT
