@<TRIPOS>MOLECULE
A1J
   23    24     1     0     0
SMALL
abcg2


@<TRIPOS>ATOM
      1 C1          10.0470    -9.2510   -24.8940 c3         1 A1J       0.147900
      2 C3          11.5600   -10.6620   -26.0960 ca         1 A1J       0.183100
      3 C7          13.1130   -11.9970   -27.3790 ca         1 A1J      -0.060000
      4 C8          12.8910   -11.0500   -26.3740 ca         1 A1J      -0.171500
      5 C9          14.0370   -10.4710   -25.6680 cc         1 A1J       0.493900
      6 C12         16.1740    -9.5770   -24.9960 cc         1 A1J       0.662300
      7 O2          11.3740    -9.7140   -25.1490 os         1 A1J      -0.322100
      8 C4          10.5100   -11.2410   -26.8110 ca         1 A1J      -0.206000
      9 C5          10.7640   -12.1880   -27.7970 ca         1 A1J      -0.054000
     10 C6          12.0670   -12.5690   -28.0890 ca         1 A1J      -0.152000
     11 N10         14.1060   -10.1700   -24.4100 nd         1 A1J      -0.274000
     12 N11         15.3130    -9.6660   -24.0120 nd         1 A1J      -0.413000
     13 N13         17.4180    -9.0540   -24.8640 nv         1 A1J      -1.038900
     14 S14         15.5400   -10.1240   -26.5240 ss         1 A1J      -0.366800
     15 H1          10.1470    -8.4860   -24.1280 h1         1 A1J       0.044367
     16 H2           9.6030    -8.8170   -25.7930 h1         1 A1J       0.044367
     17 H3           9.4130   -10.0600   -24.5250 h1         1 A1J       0.044367
     18 H4          17.7620    -8.9680   -23.9180 hn         1 A1J       0.483000
     19 H5          18.1150    -9.2930   -25.5520 hn         1 A1J       0.483000
     20 H6          14.1310   -12.3010   -27.5910 ha         1 A1J       0.118000
     21 H7           9.4910   -10.9510   -26.6070 ha         1 A1J       0.120000
     22 H8           9.9330   -12.6230   -28.3370 ha         1 A1J       0.114000
     23 H9          12.2700   -13.3050   -28.8550 ha         1 A1J       0.120000
@<TRIPOS>BOND
     1     1     7 1   
     2     1    15 1   
     3     1    16 1   
     4     1    17 1   
     5     2     4 ar  
     6     2     7 1   
     7     2     8 ar  
     8     3     4 ar  
     9     3    10 ar  
    10     3    20 1   
    11     4     5 1   
    12     5    11 2   
    13     5    14 1   
    14     6    12 2   
    15     6    13 1   
    16     6    14 1   
    17     8     9 ar  
    18     8    21 1   
    19     9    10 ar  
    20     9    22 1   
    21    10    23 1   
    22    11    12 1   
    23    13    18 1   
    24    13    19 1   
@<TRIPOS>SUBSTRUCTURE
     1 A1J         1 TEMP              0 ****  ****    0 ROOT
