@<TRIPOS>MOLECULE
A1J
   47    50     1     0     0
SMALL
abcg2


@<TRIPOS>ATOM
      1 N1          17.4820   -39.7000    30.3660 n3         1 A1J      -0.791500
      2 C1          21.2230   -44.1200    29.9660 ca         1 A1J      -0.001000
      3 C2          22.4570   -44.3630    30.5490 ca         1 A1J      -0.150000
      4 C3          23.5810   -43.6550    30.1510 ca         1 A1J       0.179100
      5 C4          23.4680   -42.6840    29.1400 ca         1 A1J       0.024100
      6 N3          14.3140   -42.5590    27.3060 nc         1 A1J       0.021000
      7 C5          22.2400   -42.4370    28.5560 ca         1 A1J      -0.072000
      8 C6          18.4050   -41.9590    30.5350 c6         1 A1J       0.183800
      9 C7          17.9900   -40.6950    31.2880 c6         1 A1J       0.236300
     10 O2          24.6100   -42.0510    28.8080 oh         1 A1J      -0.559100
     11 C8          15.2490   -39.5420    28.9050 ca         1 A1J      -0.373500
     12 C9          14.8990   -38.6300    27.9400 ca         1 A1J       0.129000
     13 C10         14.3260   -38.9760    26.7010 ca         1 A1J      -0.303000
     14 C11         14.0700   -40.2910    26.3470 ca         1 A1J       0.453000
     15 C12         14.4310   -41.2630    27.3450 ca         1 A1J      -0.161000
     16 C13         15.0030   -40.9040    28.5980 ca         1 A1J       0.004000
     17 C14         18.4110   -39.2140    29.3570 c6         1 A1J       0.236300
     18 C15         19.5040   -40.2600    29.1510 c6         1 A1J       0.183800
     19 O3          14.7840   -42.9940    28.4640 os         1 A1J       0.007000
     20 O4          16.0580   -37.6190    30.4150 o          1 A1J      -0.546000
     21 N4          15.2060   -42.0070    29.2680 nc         1 A1J      -0.007000
     22 O6          19.7460   -42.2350    26.9480 o          1 A1J      -0.534000
     23 O           18.6930   -43.9500    28.4580 o          1 A1J      -0.534000
     24 C           21.1220   -43.1560    28.9750 ca         1 A1J      -0.318500
     25 N           18.8890   -41.5810    29.2010 n3         1 A1J      -0.717500
     26 S1          15.9750   -39.0720    30.4250 sy         1 A1J       1.239600
     27 O5          15.2790   -39.7370    31.5150 o          1 A1J      -0.546000
     28 H           20.3620   -44.6910    30.2850 ha         1 A1J       0.143000
     29 H1          22.5540   -45.1140    31.3230 ha         1 A1J       0.139000
     30 H2          25.4570   -43.3630    30.3760 ho         1 A1J       0.491000
     31 H11         13.3880   -41.6500    24.9720 hn         1 A1J       0.508500
     32 H12         13.2990   -40.0060    24.4820 hn         1 A1J       0.508500
     33 H4          22.1620   -41.6940    27.7710 ha         1 A1J       0.131000
     34 H6          17.5520   -42.6230    30.4240 h1         1 A1J       0.061950
     35 H5          19.1730   -42.4730    31.1240 h1         1 A1J       0.061950
     36 H8          17.2340   -40.9480    32.0270 h1         1 A1J       0.060700
     37 H7          18.8370   -40.2740    31.8360 h1         1 A1J       0.060700
     38 H3          24.4700   -41.4090    28.1020 ho         1 A1J       0.482000
     39 H9          15.0700   -37.5780    28.1260 ha         1 A1J       0.140000
     40 H10         14.0840   -38.1840    26.0060 ha         1 A1J       0.126000
     41 H13         17.8810   -39.0650    28.4130 h1         1 A1J       0.060700
     42 H14         18.8670   -38.2640    29.6440 h1         1 A1J       0.060700
     43 H16         19.9600   -40.0860    28.1790 h1         1 A1J       0.061950
     44 H15         20.2920   -40.1620    29.9040 h1         1 A1J       0.061950
     45 S           19.5440   -42.7850    28.2780 sy         1 A1J       1.164600
     46 O1          24.7550   -43.9190    30.7390 oh         1 A1J      -0.523100
     47 N2          13.5370   -40.6800    25.1900 nv         1 A1J      -1.084000
@<TRIPOS>BOND
     1     1     9 1   
     2     1    17 1   
     3     1    26 1   
     4     2     3 ar  
     5     2    24 ar  
     6     2    28 1   
     7     3     4 ar  
     8     3    29 1   
     9     4     5 ar  
    10     4    46 1   
    11     5     7 ar  
    12     5    10 1   
    13     6    15 2   
    14     6    19 1   
    15     7    24 ar  
    16     7    33 1   
    17     8     9 1   
    18     8    25 1   
    19     8    34 1   
    20     8    35 1   
    21     9    36 1   
    22     9    37 1   
    23    10    38 1   
    24    11    12 ar  
    25    11    16 ar  
    26    11    26 1   
    27    12    13 ar  
    28    12    39 1   
    29    13    14 ar  
    30    13    40 1   
    31    14    15 ar  
    32    14    47 1   
    33    15    16 ar  
    34    16    21 2   
    35    17    18 1   
    36    17    41 1   
    37    17    42 1   
    38    18    25 1   
    39    18    43 1   
    40    18    44 1   
    41    19    21 1   
    42    20    26 2   
    43    22    45 2   
    44    23    45 2   
    45    24    45 1   
    46    25    45 1   
    47    26    27 2   
    48    30    46 1   
    49    31    47 1   
    50    32    47 1   
@<TRIPOS>SUBSTRUCTURE
     1 A1J         1 TEMP              0 ****  ****    0 ROOT
