@<TRIPOS>MOLECULE
A1J
   32    32     1     0     0
SMALL
abcg2


@<TRIPOS>ATOM
      1 C1          18.0490   -10.5890   -10.4350 ca         1 A1J      -0.076500
      2 C2          19.2230    -8.5330   -10.1920 ca         1 A1J      -0.076500
      3 C3          17.6600   -10.5370    -9.1080 ca         1 A1J      -0.158000
      4 C4          18.8420    -8.4610    -8.8510 ca         1 A1J      -0.158000
      5 C5          18.8420    -9.5890   -11.0150 ca         1 A1J      -0.091300
      6 C6          18.0570    -9.4680    -8.3060 ca         1 A1J       0.110100
      7 C7          19.2870    -8.2830    -5.6060 c          1 A1J       0.569100
      8 C8          20.1270    -8.5160   -12.9300 c3         1 A1J      -0.082767
      9 C9          17.9840    -9.7100   -13.3660 c3         1 A1J      -0.082767
     10 C10         20.0390   -10.9960   -12.7070 c3         1 A1J      -0.082767
     11 C11         17.8750    -8.3760    -6.1770 c3         1 A1J       0.069600
     12 C12         19.2490    -9.6930   -12.4860 c3         1 A1J       0.000300
     13 N13         20.0240    -9.3990    -5.6660 nt         1 A1J      -0.594000
     14 O14         19.6660    -7.2290    -5.0980 o          1 A1J      -0.611100
     15 O15         17.6340    -9.5070    -6.9980 os         1 A1J      -0.354100
     16 H16         17.7220   -11.4310   -11.0320 ha         1 A1J       0.115500
     17 H17         19.8360    -7.7330   -10.5810 ha         1 A1J       0.115500
     18 H18         17.0470   -11.3190    -8.6780 ha         1 A1J       0.125500
     19 H19         19.1750    -7.6200    -8.2600 ha         1 A1J       0.125500
     20 H20         20.3890    -8.6380   -13.9830 hc         1 A1J       0.035811
     21 H22         19.6070    -7.5630   -12.8220 hc         1 A1J       0.035811
     22 H21         21.0550    -8.4690   -12.3570 hc         1 A1J       0.035811
     23 H23         18.2620    -9.7910   -14.4200 hc         1 A1J       0.035811
     24 H24         17.3380   -10.5540   -13.1210 hc         1 A1J       0.035811
     25 H25         17.4100    -8.7910   -13.2320 hc         1 A1J       0.035811
     26 H27         20.3370   -11.0820   -13.7550 hc         1 A1J       0.035811
     27 H28         20.9420   -11.0100   -12.0930 hc         1 A1J       0.035811
     28 H26         19.4430   -11.8740   -12.4540 hc         1 A1J       0.035811
     29 H30         17.1900    -8.4680    -5.3330 h1         1 A1J       0.084700
     30 H29         17.6520    -7.4430    -6.6970 h1         1 A1J       0.084700
     31 H31         20.9540    -9.4080    -5.2780 hn         1 A1J       0.323500
     32 H32         19.6550   -10.2430    -6.0710 hn         1 A1J       0.323500
@<TRIPOS>BOND
     1     1     3 ar  
     2     1     5 ar  
     3     1    16 1   
     4     2     4 ar  
     5     2     5 ar  
     6     2    17 1   
     7     3     6 ar  
     8     3    18 1   
     9     4     6 ar  
    10     4    19 1   
    11     5    12 1   
    12     6    15 1   
    13     7    11 1   
    14     7    13 1   
    15     7    14 2   
    16     8    12 1   
    17     8    20 1   
    18     8    21 1   
    19     8    22 1   
    20     9    12 1   
    21     9    23 1   
    22     9    24 1   
    23     9    25 1   
    24    10    12 1   
    25    10    26 1   
    26    10    27 1   
    27    10    28 1   
    28    11    15 1   
    29    11    29 1   
    30    11    30 1   
    31    13    31 1   
    32    13    32 1   
@<TRIPOS>SUBSTRUCTURE
     1 A1J         1 TEMP              0 ****  ****    0 ROOT
