@<TRIPOS>MOLECULE
A1J
   59    63     1     0     0
SMALL
abcg2


@<TRIPOS>ATOM
      1 C12        -24.7640    28.6300    20.1190 c3         1 A1J       0.290100
      2 C01        -27.1950    34.5070    16.5690 c3         1 A1J       0.081900
      3 C03        -26.3370    32.3460    17.5010 ca         1 A1J       0.163500
      4 C05        -25.7900    30.4050    16.5940 cp         1 A1J       0.270500
      5 C07        -25.5400    30.5870    18.8820 ca         1 A1J       0.464900
      6 C08        -26.0110    31.9170    18.7910 ca         1 A1J      -0.391900
      7 C09        -26.2870    33.0310    19.6140 cc         1 A1J       0.386800
      8 C13        -23.4910    28.3240    19.3730 ca         1 A1J      -0.139300
      9 C14        -23.3720    27.1520    18.6350 ca         1 A1J       0.342900
     10 C16        -21.2590    27.6480    17.9610 ca         1 A1J       0.336900
     11 C17        -21.2640    28.8400    18.6710 ca         1 A1J      -0.161000
     12 C18        -22.3980    29.1800    19.3900 ca         1 A1J      -0.060000
     13 C19        -25.6270    29.5150    15.4220 cp         1 A1J      -0.128500
     14 C20        -25.0240    28.2740    15.5900 ca         1 A1J      -0.085000
     15 C21        -24.8770    27.4070    14.5200 ca         1 A1J       0.014600
     16 C22        -25.3170    27.7790    13.2550 ca         1 A1J      -0.103000
     17 C23        -25.9290    29.0120    13.0880 ca         1 A1J      -0.113000
     18 C24        -26.0860    29.8800    14.1580 ca         1 A1J      -0.068000
     19 C26        -24.6280    24.9440    14.2950 cs         1 A1J       0.477400
     20 C29        -27.0590    25.4610    14.2290 ca         1 A1J       0.043600
     21 C30        -28.0560    25.6420    13.2790 ca         1 A1J      -0.106000
     22 C31        -29.2140    26.3270    13.6130 ca         1 A1J      -0.096000
     23 C32        -29.3780    26.8550    14.8830 ca         1 A1J      -0.072000
     24 C33        -28.3830    26.6550    15.8350 ca         1 A1J      -0.173300
     25 C34        -27.2360    25.9430    15.5230 ca         1 A1J      -0.077000
     26 C35        -28.5530    27.2570    17.1960 c3         1 A1J       0.357300
     27 F36        -29.7760    27.0330    17.6930 f          1 A1J      -0.112333
     28 F37        -28.3960    28.5880    17.1630 f          1 A1J      -0.112333
     29 F38        -27.6750    26.7820    18.0860 f          1 A1J      -0.112333
     30 N02        -26.7640    33.6180    17.6170 na         1 A1J      -0.020100
     31 N04        -26.2360    31.6280    16.3800 nb         1 A1J      -0.229000
     32 N06        -25.4550    29.8680    17.7710 nb         1 A1J      -0.306000
     33 N10        -26.7320    34.0310    18.8940 nd         1 A1J      -0.522100
     34 N11        -25.1700    30.0140    20.0330 nu         1 A1J      -0.926100
     35 N15        -22.2910    26.8130    17.9430 nb         1 A1J      -0.671000
     36 N25        -24.2630    26.1570    14.7540 ns         1 A1J      -0.362100
     37 N28        -25.8960    24.7580    13.8650 ns         1 A1J      -0.374100
     38 S27        -23.5260    23.6810    14.2510 s          1 A1J      -0.625400
     39 H121       -24.6350    28.4090    21.1790 h1         1 A1J       0.061200
     40 H122       -25.5610    27.9770    19.7540 h1         1 A1J       0.061200
     41 H013       -28.1980    34.8750    16.7760 h1         1 A1J       0.059367
     42 H012       -26.5140    35.3510    16.4780 h1         1 A1J       0.059367
     43 H011       -27.2060    33.9580    15.6320 h1         1 A1J       0.059367
     44 H091       -26.1780    33.1320    20.6830 h4         1 A1J       0.046800
     45 H141       -24.2100    26.4600    18.5890 h4         1 A1J       0.019100
     46 H161       -20.3890    27.3580    17.3830 h4         1 A1J       0.022100
     47 H171       -20.3980    29.4870    18.6540 ha         1 A1J       0.125000
     48 H181       -22.4370    30.1120    19.9420 ha         1 A1J       0.118000
     49 H201       -24.6870    27.9750    16.5720 ha         1 A1J       0.147000
     50 H221       -25.1910    27.1150    12.4090 ha         1 A1J       0.125000
     51 H231       -26.2810    29.3020    12.1060 ha         1 A1J       0.119000
     52 H241       -26.5660    30.8380    14.0150 ha         1 A1J       0.138000
     53 H301       -27.9190    25.2590    12.2760 ha         1 A1J       0.125000
     54 H311       -29.9860    26.4680    12.8680 ha         1 A1J       0.125000
     55 H321       -30.2750    27.4100    15.1210 ha         1 A1J       0.133000
     56 H341       -26.4800    25.7580    16.2730 ha         1 A1J       0.143000
     57 H111       -25.2490    30.5430    20.8860 hn         1 A1J       0.505000
     58 H251       -23.3910    26.1700    15.2650 hn         1 A1J       0.368500
     59 H281       -26.0350    23.9050    13.3430 hn         1 A1J       0.353500
@<TRIPOS>BOND
     1     1     8 1   
     2     1    34 1   
     3     1    39 1   
     4     1    40 1   
     5     2    30 1   
     6     2    41 1   
     7     2    42 1   
     8     2    43 1   
     9     3     6 ar  
    10     3    30 1   
    11     3    31 ar  
    12     4    13 1   
    13     4    31 ar  
    14     4    32 ar  
    15     5     6 ar  
    16     5    32 ar  
    17     5    34 1   
    18     6     7 1   
    19     7    33 2   
    20     7    44 1   
    21     8     9 ar  
    22     8    12 ar  
    23     9    35 ar  
    24     9    45 1   
    25    10    11 ar  
    26    10    35 ar  
    27    10    46 1   
    28    11    12 ar  
    29    11    47 1   
    30    12    48 1   
    31    13    14 ar  
    32    13    18 ar  
    33    14    15 ar  
    34    14    49 1   
    35    15    16 ar  
    36    15    36 1   
    37    16    17 ar  
    38    16    50 1   
    39    17    18 ar  
    40    17    51 1   
    41    18    52 1   
    42    19    36 1   
    43    19    37 1   
    44    19    38 2   
    45    20    21 ar  
    46    20    25 ar  
    47    20    37 1   
    48    21    22 ar  
    49    21    53 1   
    50    22    23 ar  
    51    22    54 1   
    52    23    24 ar  
    53    23    55 1   
    54    24    25 ar  
    55    24    26 1   
    56    25    56 1   
    57    26    27 1   
    58    26    28 1   
    59    26    29 1   
    60    30    33 1   
    61    34    57 1   
    62    36    58 1   
    63    37    59 1   
@<TRIPOS>SUBSTRUCTURE
     1 A1J         1 TEMP              0 ****  ****    0 ROOT
