@<TRIPOS>MOLECULE
A1J
   14    15     1     0     0
SMALL
abcg2


@<TRIPOS>ATOM
      1 C10         45.5370    31.4560    10.0170 ca         1 A1J      -0.009900
      2 C12         44.4060    30.8450     9.4130 ca         1 A1J      -0.077900
      3 C02         44.3650    30.6510     8.0550 ca         1 A1J       0.277000
      4 C03         45.4490    31.0610     7.2790 ca         1 A1J      -0.005600
      5 C07         46.5510    31.6590     7.8820 ca         1 A1J      -0.092200
      6 C08         46.6050    31.8650     9.2570 ca         1 A1J       0.184000
      7 F01         43.3260    30.0780     7.4670 f          1 A1J      -0.122000
      8 F09         47.6640    32.4450     9.8050 f          1 A1J      -0.143000
      9 N04         45.6790    30.9910     5.9390 nc         1 A1J      -0.190400
     10 N05         46.8270    31.4970     5.7090 nd         1 A1J      -0.140400
     11 N06         47.3750    31.9050     6.8430 na         1 A1J      -0.045400
     12 BR11        45.6240    31.7190    11.8620 br         1 A1J      -0.014100
     13 BR13        42.9470    30.2880    10.4370 br         1 A1J      -0.018100
     14 H061        48.2960    32.3230     6.8380 hn         1 A1J       0.399000
@<TRIPOS>BOND
     1     1     2 ar  
     2     1     6 ar  
     3     1    12 1   
     4     2     3 ar  
     5     2    13 1   
     6     3     4 ar  
     7     3     7 1   
     8     4     5 ar  
     9     4     9 1   
    10     5     6 ar  
    11     5    11 1   
    12     6     8 1   
    13     9    10 2   
    14    10    11 1   
    15    11    14 1   
@<TRIPOS>SUBSTRUCTURE
     1 A1J         1 TEMP              0 ****  ****    0 ROOT
