@<TRIPOS>MOLECULE
A1J
   30    32     1     0     0
SMALL
abcg2


@<TRIPOS>ATOM
      1 C1           0.3310     8.6550    15.0170 ca         1 A1J       0.401900
      2 C2          -0.4230     9.8070    16.8520 ca         1 A1J       0.227900
      3 C3           0.6450     9.3080    17.5800 ca         1 A1J      -0.341600
      4 C4           1.5260     8.4670    16.9110 ca         1 A1J       0.159300
      5 C5           2.6070     8.0360    17.8540 c5         1 A1J       0.040700
      6 C6           3.0150     8.6410    20.3100 c5         1 A1J       0.114700
      7 C7           3.2150     7.2250    20.8620 c5         1 A1J      -0.094900
      8 N1           0.1550     8.3330    13.7260 nv         1 A1J      -1.065900
      9 N2          -0.5840     9.4850    15.5740 nb         1 A1J      -0.261000
     10 N3           1.4060     8.1190    15.6460 nb         1 A1J      -0.238000
     11 N4           2.2390     8.7250    19.0880 n          1 A1J      -0.421800
     12 C8           4.2900     7.4230    21.9400 c5         1 A1J      -0.078900
     13 C9           5.1550     8.6240    21.4560 c5         1 A1J      -0.078900
     14 C10          4.4490     9.1820    20.2040 c5         1 A1J      -0.094900
     15 C11          1.0980     9.4720    18.9720 c          1 A1J       0.604600
     16 O1           0.5760    10.1390    19.8650 o          1 A1J      -0.549000
     17 H3          -1.1590    10.4720    17.2920 h4         1 A1J       0.042100
     18 H5           2.6130     6.9500    17.9800 h1         1 A1J       0.075700
     19 H4           3.5930     8.3400    17.4930 h1         1 A1J       0.075700
     20 H6           2.4640     9.2310    21.0430 h1         1 A1J       0.088700
     21 H7           2.2890     6.7940    21.2470 hc         1 A1J       0.048200
     22 H8           3.5870     6.5720    20.0690 hc         1 A1J       0.048200
     23 H2          -0.6130     8.7250    13.2100 hn         1 A1J       0.511000
     24 H1           0.8180     7.7380    13.2590 hn         1 A1J       0.511000
     25 H9           3.8170     7.6640    22.8930 hc         1 A1J       0.045200
     26 H10          4.8830     6.5220    22.0940 hc         1 A1J       0.045200
     27 H11          5.2180     9.3830    22.2360 hc         1 A1J       0.045200
     28 H12          6.1760     8.3180    21.2260 hc         1 A1J       0.045200
     29 H13          4.4730    10.2710    20.1450 hc         1 A1J       0.048200
     30 H14          4.9170     8.7910    19.2990 hc         1 A1J       0.048200
@<TRIPOS>BOND
     1     1     8 1   
     2     1     9 ar  
     3     1    10 ar  
     4     2     3 ar  
     5     2     9 ar  
     6     2    17 1   
     7     3     4 ar  
     8     3    15 1   
     9     4     5 1   
    10     4    10 ar  
    11     5    11 1   
    12     5    18 1   
    13     5    19 1   
    14     6     7 1   
    15     6    11 1   
    16     6    14 1   
    17     6    20 1   
    18     7    12 1   
    19     7    21 1   
    20     7    22 1   
    21     8    23 1   
    22     8    24 1   
    23    11    15 1   
    24    12    13 1   
    25    12    25 1   
    26    12    26 1   
    27    13    14 1   
    28    13    27 1   
    29    13    28 1   
    30    14    29 1   
    31    14    30 1   
    32    15    16 2   
@<TRIPOS>SUBSTRUCTURE
     1 A1J         1 TEMP              0 ****  ****    0 ROOT
