@<TRIPOS>MOLECULE
A1J
   75    81     1     0     0
SMALL
abcg2


@<TRIPOS>ATOM
      1 C13         26.9360    -8.3710    17.1280 ca         1 A1J       0.352300
      2 C17         24.6840    -6.1710    17.2470 cy         1 A1J      -0.091400
      3 C21         28.2060   -11.3380    19.9420 c3         1 A1J       0.128200
      4 C22         29.4130   -11.0610    20.7890 c2         1 A1J      -0.265200
      5 C28         33.1160   -10.6190    12.4370 ca         1 A1J      -0.131000
      6 C02         28.9830   -13.1670    18.4340 c          1 A1J       0.586600
      7 C03         29.8940   -13.1250    17.3050 ca         1 A1J      -0.375600
      8 C04         30.0350   -11.7890    16.9260 ca         1 A1J       0.262500
      9 C06         28.7680    -9.7290    17.3630 ca         1 A1J       0.464500
     10 C07         29.6240    -8.7780    16.8210 ca         1 A1J      -0.126000
     11 C08         29.0710    -7.5900    16.3590 ca         1 A1J      -0.071300
     12 C09         29.9550    -6.5180    15.7570 c3         1 A1J       0.200900
     13 C11         30.6920    -7.2820    13.6000 c3         1 A1J       0.204900
     14 C12         27.7030    -7.3870    16.5130 ca         1 A1J      -0.155000
     15 C14         25.4550    -8.2170    17.4160 cy         1 A1J       0.111700
     16 C16         24.6480    -7.4310    16.3480 cy         1 A1J      -0.095900
     17 C18         25.1550    -7.0580    18.4260 cy         1 A1J      -0.095900
     18 C23         29.6450   -11.6550    21.9530 c2         1 A1J      -0.284000
     19 C25         31.3280   -12.3390    15.1860 ca         1 A1J       0.428900
     20 C27         32.1490   -10.7530    13.4390 ca         1 A1J       0.286000
     21 C29         33.2610    -9.4200    11.7600 ca         1 A1J      -0.130000
     22 C30         32.4820    -8.2940    12.0730 ca         1 A1J       0.260000
     23 C32         31.5270    -6.8440    10.3900 c6         1 A1J       0.172300
     24 C33         31.8860    -5.6540     9.5120 c6         1 A1J       0.146800
     25 C35         32.8050    -6.3050     7.3410 c3         1 A1J       0.151100
     26 C36         34.0260    -6.8190     9.3510 c6         1 A1J       0.146800
     27 C37         33.9310    -6.6930    10.8630 c6         1 A1J       0.172300
     28 C38         31.5310    -8.4270    13.0960 ca         1 A1J      -0.073300
     29 C39         31.3580    -9.6480    13.7380 ca         1 A1J      -0.097000
     30 C41         30.6010   -14.0480    16.5370 ca         1 A1J       0.248900
     31 N05         29.2900   -10.9860    17.7540 na         1 A1J      -0.205300
     32 N19         27.4660    -9.5320    17.5230 nb         1 A1J      -0.720000
     33 N20         28.5580   -11.8430    18.6110 n          1 A1J      -0.272100
     34 N24         30.7270   -11.3700    15.8870 nb         1 A1J      -0.274000
     35 N26         32.0190   -12.0050    14.0690 nu         1 A1J      -0.913900
     36 N31         32.6020    -7.0660    11.3770 nh         1 A1J      -0.790400
     37 N34         33.0980    -5.8830     8.7030 n3         1 A1J      -0.722600
     38 N40         31.3180   -13.6690    15.4900 nb         1 A1J      -0.270000
     39 O10         31.0200    -7.0450    14.9820 os         1 A1J      -0.452000
     40 O15         24.8990    -9.4710    17.7540 oh         1 A1J      -0.654000
     41 H172        25.4370    -5.4490    16.9360 hc         1 A1J       0.049200
     42 H171        23.7380    -5.6500    17.3840 hc         1 A1J       0.049200
     43 H211        27.6000   -10.4440    19.8030 h1         1 A1J       0.083200
     44 H212        27.5800   -12.1050    20.3930 h1         1 A1J       0.083200
     45 H221        30.1140   -10.3290    20.3990 ha         1 A1J       0.178000
     46 H281        33.7420   -11.4650    12.1750 ha         1 A1J       0.115000
     47 H071        30.6820    -8.9680    16.7430 ha         1 A1J       0.166000
     48 H092        30.4180    -5.9520    16.5700 h1         1 A1J       0.059200
     49 H091        29.3480    -5.8190    15.1740 h1         1 A1J       0.059200
     50 H112        30.8810    -6.3700    13.0330 h1         1 A1J       0.046700
     51 H111        29.6300    -7.5330    13.5150 h1         1 A1J       0.046700
     52 H121        27.2500    -6.4710    16.1610 ha         1 A1J       0.131000
     53 H161        23.6470    -7.8540    16.2730 hc         1 A1J       0.062950
     54 H162        25.0850    -7.3630    15.3520 hc         1 A1J       0.062950
     55 H181        25.9890    -6.7030    19.0300 hc         1 A1J       0.062950
     56 H182        24.3320    -7.3530    19.0770 hc         1 A1J       0.062950
     57 H232        30.5230   -11.4220    22.5430 ha         1 A1J       0.167000
     58 H231        28.9580   -12.3900    22.3590 ha         1 A1J       0.167000
     59 H291        33.9970    -9.3600    10.9700 ha         1 A1J       0.116000
     60 H321        30.5830    -6.6580    10.9050 h1         1 A1J       0.050950
     61 H322        31.3840    -7.7370     9.7640 h1         1 A1J       0.050950
     62 H331        32.0320    -4.7790    10.1510 h1         1 A1J       0.048950
     63 H332        31.0540    -5.4290     8.8450 h1         1 A1J       0.048950
     64 H352        33.7380    -6.3940     6.7810 h1         1 A1J       0.032033
     65 H351        32.2910    -7.2800     7.2950 h1         1 A1J       0.032033
     66 H353        32.1790    -5.5620     6.8450 h1         1 A1J       0.032033
     67 H361        33.8040    -7.8590     9.0610 h1         1 A1J       0.048950
     68 H362        35.0460    -6.6070     9.0180 h1         1 A1J       0.048950
     69 H371        34.6890    -7.3080    11.3420 h1         1 A1J       0.050950
     70 H372        34.1410    -5.6560    11.1450 h1         1 A1J       0.050950
     71 H391        30.6140    -9.7180    14.5090 ha         1 A1J       0.153000
     72 H411        30.5780   -15.1090    16.7640 h4         1 A1J       0.043100
     73 H261        32.4990   -12.7790    13.6320 hn         1 A1J       0.518000
     74 H151        25.6560   -10.0650    17.9140 ho         1 A1J       0.483000
     75 O01         28.6240   -14.0950    19.1510 o          1 A1J      -0.516000
@<TRIPOS>BOND
     1     1    14 ar  
     2     1    15 1   
     3     1    32 ar  
     4     2    16 1   
     5     2    17 1   
     6     2    41 1   
     7     2    42 1   
     8     3     4 1   
     9     3    33 1   
    10     3    43 1   
    11     3    44 1   
    12     4    18 2   
    13     4    45 1   
    14     5    20 ar  
    15     5    21 ar  
    16     5    46 1   
    17     6     7 1   
    18     6    33 1   
    19     6    75 2   
    20     7     8 ar  
    21     7    30 ar  
    22     8    31 1   
    23     8    34 ar  
    24     9    10 ar  
    25     9    31 1   
    26     9    32 ar  
    27    10    11 ar  
    28    10    47 1   
    29    11    12 1   
    30    11    14 ar  
    31    12    39 1   
    32    12    48 1   
    33    12    49 1   
    34    13    28 1   
    35    13    39 1   
    36    13    50 1   
    37    13    51 1   
    38    14    52 1   
    39    15    16 1   
    40    15    17 1   
    41    15    40 1   
    42    16    53 1   
    43    16    54 1   
    44    17    55 1   
    45    17    56 1   
    46    18    57 1   
    47    18    58 1   
    48    19    34 ar  
    49    19    35 1   
    50    19    38 ar  
    51    20    29 ar  
    52    20    35 1   
    53    21    22 ar  
    54    21    59 1   
    55    22    28 ar  
    56    22    36 1   
    57    23    24 1   
    58    23    36 1   
    59    23    60 1   
    60    23    61 1   
    61    24    37 1   
    62    24    62 1   
    63    24    63 1   
    64    25    37 1   
    65    25    64 1   
    66    25    65 1   
    67    25    66 1   
    68    26    27 1   
    69    26    37 1   
    70    26    67 1   
    71    26    68 1   
    72    27    36 1   
    73    27    69 1   
    74    27    70 1   
    75    28    29 ar  
    76    29    71 1   
    77    30    38 ar  
    78    30    72 1   
    79    31    33 1   
    80    35    73 1   
    81    40    74 1   
@<TRIPOS>SUBSTRUCTURE
     1 A1J         1 TEMP              0 ****  ****    0 ROOT
