@<TRIPOS>MOLECULE
A1J
   11    11     1     0     0
SMALL
abcg2


@<TRIPOS>ATOM
      1 C1          49.6480   -33.8900   -12.9340 cc         1 A1J      -0.277000
      2 N           49.7520   -33.6180   -14.2950 na         1 A1J      -0.309500
      3 C           48.3080   -33.8800   -12.6980 cd         1 A1J       0.504300
      4 O           47.6990   -34.0940   -11.5210 oh         1 A1J      -0.637300
      5 C12         48.5110   -33.4700   -14.7620 cc         1 A1J       0.664800
      6 N1          47.6000   -33.6180   -13.8340 nd         1 A1J      -0.824000
      7 O1          48.3010   -33.2030   -16.0460 oh         1 A1J      -0.647300
      8 H11         50.5050   -34.0550   -12.3050 h4         1 A1J       0.174000
      9 H1          50.6060   -33.5470   -14.8250 hn         1 A1J       0.366000
     10 HO1         46.7450   -34.0390   -11.6500 ho         1 A1J       0.481000
     11 H12         47.3510   -33.1360   -16.2060 ho         1 A1J       0.506000
@<TRIPOS>BOND
     1     1     2 1   
     2     1     3 2   
     3     1     8 1   
     4     2     5 1   
     5     2     9 1   
     6     3     4 1   
     7     3     6 1   
     8     4    10 1   
     9     5     6 2   
    10     5     7 1   
    11     7    11 1   
@<TRIPOS>SUBSTRUCTURE
     1 A1J         1 TEMP              0 ****  ****    0 ROOT
