@<TRIPOS>MOLECULE
A1J
   56    58     1     0     0
SMALL
abcg2


@<TRIPOS>ATOM
      1 C01         16.8690    47.6880    41.6090 c3         1 A1J       0.142900
      2 C03         17.8270    47.2120    39.5060 c3         1 A1J       0.151600
      3 C04         18.5320    45.8960    39.8070 c3         1 A1J      -0.115400
      4 C05         17.6360    44.6960    39.5360 c3         1 A1J       0.204800
      5 C07         18.7860    43.1110    41.0620 c3         1 A1J       0.216800
      6 C08         20.2620    43.3940    41.2890 c5         1 A1J      -0.074700
      7 C10         22.0980    42.6640    42.7140 c5         1 A1J       0.162800
      8 C13         24.8140    42.2470    41.5320 c1         1 A1J      -0.140100
      9 C14         25.8590    42.5940    42.0130 c1         1 A1J      -0.243000
     10 C15         21.2340    42.4680    40.5730 c5         1 A1J       0.165800
     11 C20         16.1180    40.6560    40.2570 ca         1 A1J       0.017000
     12 C21         14.8600    40.3050    40.7920 ca         1 A1J      -0.067000
     13 C22         13.7160    41.0570    40.4210 ca         1 A1J       0.003000
     14 C23         12.4580    40.6990    40.9580 ca         1 A1J      -0.110000
     15 C24         12.3470    39.6410    41.8190 ca         1 A1J      -0.087000
     16 C26         14.7150    39.2160    41.6820 ca         1 A1J      -0.085000
     17 C27         13.8660    42.1350    39.5170 ca         1 A1J      -0.109000
     18 C28         15.0880    42.4580    39.0020 ca         1 A1J      -0.039000
     19 O02         16.6490    47.4260    40.2450 os         1 A1J      -0.455000
     20 C09         20.6700    43.2300    42.7640 c5         1 A1J      -0.083400
     21 C19         16.2210    41.7080    39.3880 ca         1 A1J      -0.300500
     22 C25         13.4850    38.8910    42.1840 ca         1 A1J      -0.112000
     23 N06         18.3480    43.4210    39.6940 n3         1 A1J      -0.733500
     24 N11         22.4640    42.7120    41.3040 n3         1 A1J      -0.721600
     25 S16         17.8180    42.1620    38.7640 sy         1 A1J       1.158600
     26 H012        15.9150    47.9740    42.0500 h1         1 A1J       0.028033
     27 H013        17.2450    46.8160    42.1560 h1         1 A1J       0.028033
     28 H011        17.5790    48.5100    41.7570 h1         1 A1J       0.028033
     29 H032        17.5320    47.2330    38.4530 h1         1 A1J       0.049700
     30 H031        18.5360    48.0370    39.6620 h1         1 A1J       0.049700
     31 H042        19.4170    45.8400    39.1680 hc         1 A1J       0.057700
     32 H041        18.8930    45.8920    40.8380 hc         1 A1J       0.057700
     33 H051        16.7640    44.7160    40.1990 h1         1 A1J       0.058200
     34 H052        17.2700    44.7690    38.5130 h1         1 A1J       0.058200
     35 H072        18.5790    42.0700    41.3170 h1         1 A1J       0.048200
     36 H071        18.1840    43.7120    41.7510 h1         1 A1J       0.048200
     37 H081        20.4820    44.4150    40.9710 hc         1 A1J       0.071700
     38 H101        22.8050    43.2350    43.3180 h1         1 A1J       0.040200
     39 H102        22.1090    41.6310    43.0940 h1         1 A1J       0.040200
     40 H121        23.6510    41.8250    39.8530 h1         1 A1J       0.050200
     41 H122        23.3470    40.7800    41.2350 h1         1 A1J       0.050200
     42 H141        26.7820    42.9020    42.4490 ha         1 A1J       0.253000
     43 H151        21.3550    42.7000    39.5130 h1         1 A1J       0.053200
     44 H152        20.8990    41.4190    40.6530 h1         1 A1J       0.053200
     45 H201        16.9860    40.0740    40.5400 ha         1 A1J       0.136000
     46 H231        11.5840    41.2720    40.6750 ha         1 A1J       0.119000
     47 H241        11.3800    39.3730    42.2240 ha         1 A1J       0.117000
     48 H261        15.5910    38.6430    41.9600 ha         1 A1J       0.118000
     49 H271        12.9910    42.7030    39.2250 ha         1 A1J       0.119000
     50 H281        15.1790    43.2730    38.2960 ha         1 A1J       0.132000
     51 H091        20.6130    44.1750    43.3040 hc         1 A1J       0.043200
     52 H092        20.0030    42.5310    43.2730 hc         1 A1J       0.043200
     53 H251        13.3800    38.0570    42.8650 ha         1 A1J       0.118000
     54 C12         23.5440    41.8260    40.9410 c3         1 A1J       0.256900
     55 O17         18.7120    41.0390    38.9950 o          1 A1J      -0.536000
     56 O18         17.6450    42.6640    37.4110 o          1 A1J      -0.536000
@<TRIPOS>BOND
     1     1    19 1   
     2     1    26 1   
     3     1    27 1   
     4     1    28 1   
     5     2     3 1   
     6     2    19 1   
     7     2    29 1   
     8     2    30 1   
     9     3     4 1   
    10     3    31 1   
    11     3    32 1   
    12     4    23 1   
    13     4    33 1   
    14     4    34 1   
    15     5     6 1   
    16     5    23 1   
    17     5    35 1   
    18     5    36 1   
    19     6    10 1   
    20     6    20 1   
    21     6    37 1   
    22     7    20 1   
    23     7    24 1   
    24     7    38 1   
    25     7    39 1   
    26     8     9 3   
    27     8    54 1   
    28     9    42 1   
    29    10    24 1   
    30    10    43 1   
    31    10    44 1   
    32    11    12 ar  
    33    11    21 ar  
    34    11    45 1   
    35    12    13 ar  
    36    12    16 ar  
    37    13    14 ar  
    38    13    17 ar  
    39    14    15 ar  
    40    14    46 1   
    41    15    22 ar  
    42    15    47 1   
    43    16    22 ar  
    44    16    48 1   
    45    17    18 ar  
    46    17    49 1   
    47    18    21 ar  
    48    18    50 1   
    49    20    51 1   
    50    20    52 1   
    51    21    25 1   
    52    22    53 1   
    53    23    25 1   
    54    24    54 1   
    55    25    55 2   
    56    25    56 2   
    57    40    54 1   
    58    41    54 1   
@<TRIPOS>SUBSTRUCTURE
     1 A1J         1 TEMP              0 ****  ****    0 ROOT
