@<TRIPOS>MOLECULE
A1J
   62    67     1     0     0
SMALL
abcg2


@<TRIPOS>ATOM
      1 C2          14.4000    -1.8270     3.6380 ca         1 A1J       0.219000
      2 C3          14.3530    -1.8000     2.2380 ca         1 A1J      -0.193000
      3 C4          13.1660    -1.5190     1.6110 ca         1 A1J       0.003000
      4 C5          12.0400    -1.2720     2.4030 ca         1 A1J      -0.255900
      5 C6          10.6900    -0.9390     2.1330 cc         1 A1J       0.362800
      6 C11         10.2110    -2.0930     6.4650 cx         1 A1J      -0.122400
      7 C12         12.1170    -1.3230     3.8080 ca         1 A1J       0.004800
      8 C16         13.3350    -0.0940     7.8440 c          1 A1J       0.637700
      9 C18         13.4240     1.3230     8.2430 cc         1 A1J      -0.252600
     10 C19         14.0940     2.3410     7.6170 cd         1 A1J      -0.047000
     11 C21         13.2030     3.1270     9.5500 cc         1 A1J      -0.010300
     12 O26         14.7970     5.0560     6.5830 o          1 A1J      -0.542000
     13 C30         18.6400     4.5680     8.4530 ca         1 A1J      -0.172000
     14 C31         19.9230     4.3030     7.9820 cc         1 A1J      -0.174100
     15 C35         18.8260     4.8280     9.8400 ca         1 A1J      -0.039000
     16 C36         17.7300     5.1490    10.6860 ca         1 A1J      -0.052300
     17 C37         17.9440     5.4300    12.1370 c3         1 A1J      -0.038800
     18 C38         16.4990     5.1930    10.0940 ca         1 A1J      -0.045000
     19 F1          15.5980    -2.0900     4.1860 f          1 A1J      -0.176000
     20 N7          10.0180    -0.7980     3.2410 nd         1 A1J      -0.507100
     21 N8          10.8610    -1.0420     4.2580 na         1 A1J       0.099600
     22 C9          10.4020    -0.8840     5.6030 cx         1 A1J       0.020300
     23 C10          9.0260    -1.3530     5.9380 cx         1 A1J      -0.122400
     24 C13         13.3280    -1.6080     4.4760 ca         1 A1J      -0.177300
     25 C14         13.4890    -1.6520     5.9680 c3         1 A1J       0.163300
     26 N15         13.4480    -0.3120     6.5220 ns         1 A1J      -0.500900
     27 O17         13.1960    -1.0020     8.6540 o          1 A1J      -0.618100
     28 C20         13.9560     3.4780     8.4380 cd         1 A1J      -0.368500
     29 C22         12.7620     3.9270    10.7230 c3         1 A1J      -0.055800
     30 N23         12.8880     1.8180     9.4120 na         1 A1J       0.074000
     31 S25         14.6830     5.0080     8.0390 sy         1 A1J       1.074000
     32 O27         13.9740     6.0860     8.7250 o          1 A1J      -0.542000
     33 C28         16.3230     4.9270     8.7050 ca         1 A1J      -0.274500
     34 C29         17.3600     4.6200     7.8700 ca         1 A1J       0.068000
     35 N32         20.7180     4.4170     9.0450 na         1 A1J       0.017500
     36 N33         20.1090     4.7300    10.1800 nc         1 A1J      -0.285400
     37 H1          15.2550    -1.9960     1.6750 ha         1 A1J       0.137000
     38 H2          13.1040    -1.4860     0.5310 ha         1 A1J       0.126000
     39 H3          10.2120    -0.8030     1.1740 h4         1 A1J       0.054800
     40 H4          10.4330    -3.0580     6.0270 hc         1 A1J       0.086700
     41 H5          10.4720    -2.0000     7.5110 hc         1 A1J       0.086700
     42 H6          14.6530     2.2770     6.6970 ha         1 A1J       0.151000
     43 H7          11.5010     1.7800    10.9600 h1         1 A1J       0.063367
     44 H8          11.3470     0.4590     9.8130 h1         1 A1J       0.063367
     45 H9          12.6650     0.4500    10.9960 h1         1 A1J       0.063367
     46 H10         20.2990     4.0530     7.0040 h4         1 A1J       0.232000
     47 H11         18.4010     4.5760    12.6390 hc         1 A1J       0.046367
     48 H12         18.6180     6.2770    12.2760 hc         1 A1J       0.046367
     49 H13         17.0050     5.6570    12.6390 hc         1 A1J       0.046367
     50 H14         15.6380     5.4440    10.7000 ha         1 A1J       0.122000
     51 H15         10.7450     0.0250     6.0830 h1         1 A1J       0.097700
     52 H16          8.4530    -0.7350     6.6150 hc         1 A1J       0.086700
     53 H17          8.4450    -1.8190     5.1540 hc         1 A1J       0.086700
     54 H18         12.6970    -2.2520     6.4130 h1         1 A1J       0.067200
     55 H19         14.4270    -2.1420     6.2320 h1         1 A1J       0.067200
     56 H20         13.5220     0.4680     5.8890 hn         1 A1J       0.329500
     57 H21         11.6740     4.0120    10.7610 hc         1 A1J       0.067367
     58 H22         13.0910     3.4720    11.6580 hc         1 A1J       0.067367
     59 H23         13.1640     4.9320    10.6760 hc         1 A1J       0.067367
     60 H24         17.2120     4.4250     6.8170 ha         1 A1J       0.141000
     61 H25         21.7200     4.2850     9.0460 hn         1 A1J       0.374000
     62 C24         12.0590     1.0790    10.3480 c3         1 A1J       0.047900
@<TRIPOS>BOND
     1     1     2 ar  
     2     1    19 1   
     3     1    24 ar  
     4     2     3 ar  
     5     2    37 1   
     6     3     4 ar  
     7     3    38 1   
     8     4     5 1   
     9     4     7 ar  
    10     5    20 2   
    11     5    39 1   
    12     6    22 1   
    13     6    23 1   
    14     6    40 1   
    15     6    41 1   
    16     7    21 1   
    17     7    24 ar  
    18     8     9 1   
    19     8    26 1   
    20     8    27 2   
    21     9    10 2   
    22     9    30 1   
    23    10    28 1   
    24    10    42 1   
    25    11    28 2   
    26    11    29 1   
    27    11    30 1   
    28    12    31 2   
    29    13    14 2   
    30    13    15 ar  
    31    13    34 ar  
    32    14    35 1   
    33    14    46 1   
    34    15    16 ar  
    35    15    36 2   
    36    16    17 1   
    37    16    18 ar  
    38    17    47 1   
    39    17    48 1   
    40    17    49 1   
    41    18    33 ar  
    42    18    50 1   
    43    20    21 1   
    44    21    22 1   
    45    22    23 1   
    46    22    51 1   
    47    23    52 1   
    48    23    53 1   
    49    24    25 1   
    50    25    26 1   
    51    25    54 1   
    52    25    55 1   
    53    26    56 1   
    54    28    31 1   
    55    29    57 1   
    56    29    58 1   
    57    29    59 1   
    58    30    62 1   
    59    31    32 2   
    60    31    33 1   
    61    33    34 ar  
    62    34    60 1   
    63    35    36 1   
    64    35    61 1   
    65    43    62 1   
    66    44    62 1   
    67    45    62 1   
@<TRIPOS>SUBSTRUCTURE
     1 A1J         1 TEMP              0 ****  ****    0 ROOT
