@<TRIPOS>MOLECULE
A1J
   37    38     1     0     0
SMALL
abcg2


@<TRIPOS>ATOM
      1 C10        -12.5580     1.2620   -19.0900 c6         1 A1J       0.156100
      2 C11        -13.3050     3.4750   -18.9940 c6         1 A1J       0.156100
      3 C12        -12.0240     4.0050   -19.6170 c6         1 A1J      -0.116900
      4 C01         -7.1030     6.0680   -13.1990 c3         1 A1J       0.155900
      5 C03         -7.6710     4.3820   -16.3750 cc         1 A1J       0.182500
      6 C04         -6.7780     3.3700   -16.4470 cd         1 A1J       0.169900
      7 C05         -7.9830     3.4120   -18.2260 cd         1 A1J       0.403300
      8 C06         -8.4140     2.9640   -19.5950 c3         1 A1J       0.174200
      9 C07         -7.3190     3.2720   -20.6130 c3         1 A1J       0.164600
     10 C08        -10.8540     3.0790   -19.3050 c6         1 A1J       0.182500
     11 C09        -11.2340     1.6610   -19.7230 c6         1 A1J      -0.116900
     12 N01         -8.4320     4.3900   -17.5250 nc         1 A1J      -0.630000
     13 N02         -9.6680     3.5440   -20.0070 n7         1 A1J      -0.865400
     14 O01         -7.0310     5.1690   -14.3050 os         1 A1J      -0.449100
     15 O02         -8.7180     6.2250   -15.3370 o          1 A1J      -0.452000
     16 O03         -6.9760     2.7480   -17.6220 os         1 A1J      -0.259000
     17 O04         -7.0970     4.6610   -20.6130 oh         1 A1J      -0.656000
     18 O05        -13.5950     2.1620   -19.4150 os         1 A1J      -0.449000
     19 H13        -12.8700     0.2770   -19.4410 h1         1 A1J       0.044450
     20 H14        -12.4380     1.1960   -17.9970 h1         1 A1J       0.044450
     21 H15        -14.1560     4.0970   -19.2770 h1         1 A1J       0.044450
     22 H16        -13.2200     3.5150   -17.8970 h1         1 A1J       0.044450
     23 H18        -11.8290     5.0110   -19.2330 hc         1 A1J       0.055950
     24 H17        -12.1410     4.0890   -20.7020 hc         1 A1J       0.055950
     25 H01         -6.3310     5.7490   -12.5060 h1         1 A1J       0.050033
     26 H02         -6.9080     7.0940   -13.5100 h1         1 A1J       0.050033
     27 H03         -8.0740     6.0180   -12.7080 h1         1 A1J       0.050033
     28 H04         -6.0040     2.9920   -15.7990 h4         1 A1J       0.077100
     29 H05         -8.5150     1.8750   -19.5760 h1         1 A1J       0.078700
     30 H07         -6.4130     2.7110   -20.3550 h1         1 A1J       0.035700
     31 H06         -7.6650     2.9060   -21.5870 h1         1 A1J       0.035700
     32 H10        -10.7150     3.0810   -18.2120 h1         1 A1J       0.036700
     33 H11        -11.3090     1.6160   -20.8140 hc         1 A1J       0.055950
     34 H12        -10.4740     0.9360   -19.4210 hc         1 A1J       0.055950
     35 H1          -9.6100     4.5540   -19.9510 hn         1 A1J       0.454000
     36 H08         -6.4400     4.8670   -21.2840 ho         1 A1J       0.448000
     37 C02         -7.8800     5.3610   -15.3030 c          1 A1J       0.531600
@<TRIPOS>BOND
     1     1    11 1   
     2     1    18 1   
     3     1    19 1   
     4     1    20 1   
     5     2     3 1   
     6     2    18 1   
     7     2    21 1   
     8     2    22 1   
     9     3    10 1   
    10     3    23 1   
    11     3    24 1   
    12     4    14 1   
    13     4    25 1   
    14     4    26 1   
    15     4    27 1   
    16     5     6 2   
    17     5    12 1   
    18     5    37 1   
    19     6    16 1   
    20     6    28 1   
    21     7     8 1   
    22     7    12 2   
    23     7    16 1   
    24     8     9 1   
    25     8    13 1   
    26     8    29 1   
    27     9    17 1   
    28     9    30 1   
    29     9    31 1   
    30    10    11 1   
    31    10    13 1   
    32    10    32 1   
    33    11    33 1   
    34    11    34 1   
    35    13    35 1   
    36    14    37 1   
    37    15    37 2   
    38    17    36 1   
@<TRIPOS>SUBSTRUCTURE
     1 A1J         1 TEMP              0 ****  ****    0 ROOT
