@<TRIPOS>MOLECULE
A1J
   27    29     1     0     0
SMALL
abcg2


@<TRIPOS>ATOM
      1 C10          2.0480    31.1660    23.5210 cy         1 A1J      -0.149000
      2 N12          2.6040    33.4240    24.0390 nb         1 A1J      -0.681000
      3 C13          2.4340    34.6220    24.6510 ca         1 A1J       0.332900
      4 C15          0.4630    33.8730    25.7810 ca         1 A1J      -0.014000
      5 C17         -1.5270    33.0790    26.9040 ca         1 A1J      -0.092000
      6 C20          0.6280    32.6070    25.1440 ca         1 A1J      -0.080000
      7 C07          1.0000    30.4940    22.5810 cy         1 A1J      -0.080400
      8 C08          1.4890    29.1080    23.0760 cy         1 A1J      -0.095400
      9 C09          2.2160    29.8010    24.2580 cy         1 A1J      -0.080400
     10 C11          1.7480    32.4400    24.2610 ca         1 A1J       0.399300
     11 C14          1.4060    34.8890    25.5090 ca         1 A1J      -0.152000
     12 C16         -0.6270    34.0830    26.6590 ca         1 A1J      -0.107000
     13 C18         -1.3730    31.8250    26.2780 ca         1 A1J      -0.118000
     14 C19         -0.3250    31.5940    25.4230 ca         1 A1J      -0.083000
     15 H1           2.9530    31.3650    22.9480 hc         1 A1J       0.078700
     16 H3          -2.3580    33.2450    27.5780 ha         1 A1J       0.115000
     17 H4           1.1190    30.7130    21.5210 hc         1 A1J       0.053200
     18 H5          -0.0290    30.7050    22.8630 hc         1 A1J       0.053200
     19 H6           0.7190    28.3820    23.3340 hc         1 A1J       0.050200
     20 H7           2.1860    28.6440    22.3780 hc         1 A1J       0.050200
     21 H8           1.6590    29.7420    25.1900 hc         1 A1J       0.053200
     22 H9           3.2460    29.5010    24.4500 hc         1 A1J       0.053200
     23 H10          1.3080    35.8600    25.9770 ha         1 A1J       0.122000
     24 H11         -0.7330    35.0510    27.1320 ha         1 A1J       0.116000
     25 H12         -2.0880    31.0370    26.4760 ha         1 A1J       0.115000
     26 H13         -0.2390    30.6240    24.9630 ha         1 A1J       0.121000
     27 H2           3.1750    35.3790    24.4190 h4         1 A1J       0.019100
@<TRIPOS>BOND
     1     1     7 1   
     2     1     9 1   
     3     1    10 1   
     4     1    15 1   
     5     2     3 ar  
     6     2    10 ar  
     7     3    11 ar  
     8     3    27 1   
     9     4     6 ar  
    10     4    11 ar  
    11     4    12 ar  
    12     5    12 ar  
    13     5    13 ar  
    14     5    16 1   
    15     6    10 ar  
    16     6    14 ar  
    17     7     8 1   
    18     7    17 1   
    19     7    18 1   
    20     8     9 1   
    21     8    19 1   
    22     8    20 1   
    23     9    21 1   
    24     9    22 1   
    25    11    23 1   
    26    12    24 1   
    27    13    14 ar  
    28    13    25 1   
    29    14    26 1   
@<TRIPOS>SUBSTRUCTURE
     1 A1J         1 TEMP              0 ****  ****    0 ROOT
