@<TRIPOS>MOLECULE
A1J
   36    37     1     0     0
SMALL
abcg2


@<TRIPOS>ATOM
      1 C12        -17.7540    17.6870   -37.8180 ca         1 A1J       0.127000
      2 C13        -17.6330    18.8440   -38.5720 ca         1 A1J      -0.109500
      3 C14        -18.4010    18.9770   -39.7180 ca         1 A1J      -0.051500
      4 C01        -23.6030    18.0780   -39.6630 c3         1 A1J       0.100300
      5 C02        -21.4850    18.7260   -40.6910 c          1 A1J       0.592100
      6 C03        -20.1790    18.2100   -41.3160 c3         1 A1J       0.153800
      7 C04        -21.3290    17.3070   -43.2390 c5         1 A1J       0.130800
      8 C05        -20.4800    17.8910   -44.3870 c5         1 A1J      -0.114400
      9 C06        -19.0490    17.4610   -44.0340 c5         1 A1J      -0.097400
     10 C07        -19.2390    16.5000   -42.8580 c5         1 A1J       0.026500
     11 C08        -17.9650    16.1790   -42.0350 c          1 A1J       0.727000
     12 C09        -19.2800    17.9780   -40.1190 ca         1 A1J      -0.048300
     13 C10        -19.3920    16.8350   -39.3370 ca         1 A1J      -0.051500
     14 C11        -18.6300    16.6800   -38.1900 ca         1 A1J      -0.109500
     15 N02        -20.4150    17.0210   -42.1220 n3         1 A1J      -0.686600
     16 O02        -17.9580    15.0710   -41.4630 o          1 A1J      -0.716500
     17 O03        -17.0510    17.0230   -42.0540 o          1 A1J      -0.716500
     18 CL01       -16.7950    17.4960   -36.3830 cl         1 A1J      -0.254000
     19 H16        -16.9480    19.6270   -38.2760 ha         1 A1J       0.113500
     20 H17        -18.3030    19.8760   -40.3150 ha         1 A1J       0.121000
     21 H02        -24.1240    17.1430   -39.4770 h1         1 A1J       0.027367
     22 H03        -23.4330    18.5710   -38.7060 h1         1 A1J       0.027367
     23 H01        -24.2500    18.7160   -40.2660 h1         1 A1J       0.027367
     24 H05        -19.7680    19.0530   -41.8900 h1         1 A1J       0.065700
     25 H06        -21.7790    16.3600   -43.5490 h1         1 A1J       0.037200
     26 H07        -22.1500    17.9600   -42.9450 h1         1 A1J       0.037200
     27 H08        -20.8080    17.4960   -45.3490 hc         1 A1J       0.026700
     28 H09        -20.5740    18.9770   -44.4410 hc         1 A1J       0.026700
     29 H10        -18.5330    16.9780   -44.8650 hc         1 A1J       0.051700
     30 H11        -18.4380    18.3110   -43.7300 hc         1 A1J       0.051700
     31 H12        -19.5850    15.5420   -43.2640 h1         1 A1J       0.046700
     32 H14        -20.0700    16.0430   -39.6240 ha         1 A1J       0.121000
     33 H15        -18.7180    15.7830   -37.5930 ha         1 A1J       0.113500
     34 H04        -22.1610    16.8300   -40.6040 hn         1 A1J       0.343500
     35 N01        -22.3610    17.7810   -40.3350 ns         1 A1J      -0.503900
     36 O01        -21.6510    19.9160   -40.4710 o          1 A1J      -0.636100
@<TRIPOS>BOND
     1     1     2 ar  
     2     1    14 ar  
     3     1    18 1   
     4     2     3 ar  
     5     2    19 1   
     6     3    12 ar  
     7     3    20 1   
     8     4    21 1   
     9     4    22 1   
    10     4    23 1   
    11     4    35 1   
    12     5     6 1   
    13     5    35 1   
    14     5    36 2   
    15     6    12 1   
    16     6    15 1   
    17     6    24 1   
    18     7     8 1   
    19     7    15 1   
    20     7    25 1   
    21     7    26 1   
    22     8     9 1   
    23     8    27 1   
    24     8    28 1   
    25     9    10 1   
    26     9    29 1   
    27     9    30 1   
    28    10    11 1   
    29    10    15 1   
    30    10    31 1   
    31    11    16 1   
    32    11    17 1   
    33    12    13 ar  
    34    13    14 ar  
    35    13    32 1   
    36    14    33 1   
    37    34    35 1   
@<TRIPOS>SUBSTRUCTURE
     1 A1J         1 TEMP              0 ****  ****    0 ROOT
