@<TRIPOS>MOLECULE
A1J
   37    37     1     0     0
SMALL
abcg2


@<TRIPOS>ATOM
      1 C1          -9.2440     5.1260   -18.4890 c3         1 A1J      -0.081433
      2 C10        -14.6040     3.3700   -19.3820 c          1 A1J       0.535600
      3 C11        -14.9110     5.4360   -20.4510 c3         1 A1J       0.148900
      4 C12        -13.8850     1.2280   -18.2840 cc         1 A1J       0.181900
      5 C2          -8.6590     4.2060   -17.4080 c3         1 A1J      -0.119000
      6 C3          -7.2050     3.8580   -17.7500 c3         1 A1J      -0.081433
      7 C4          -8.6980     4.9250   -16.0620 c3         1 A1J      -0.081433
      8 C5          -9.5150     2.9400   -17.3340 c          1 A1J       0.611100
      9 C6         -10.3400     0.9880   -18.5230 c3         1 A1J       0.104400
     10 C7          -9.9950     0.1740   -19.7680 c3         1 A1J       0.149600
     11 C8         -11.7730     1.4230   -18.5880 cc         1 A1J       0.413300
     12 C9         -13.6160     2.3800   -18.9400 cd         1 A1J       0.174500
     13 N1          -9.4780     2.1360   -18.4190 ns         1 A1J      -0.491900
     14 N2         -12.2550     2.4820   -19.1280 nd         1 A1J      -0.629000
     15 O1          -8.6790    -0.2890   -19.6320 oh         1 A1J      -0.653000
     16 O2         -14.0420     4.4070   -19.9740 os         1 A1J      -0.407100
     17 O3         -15.7910     3.2320   -19.2110 o          1 A1J      -0.493000
     18 O4         -12.7100     0.6160   -18.0600 os         1 A1J      -0.243000
     19 O5         -10.2180     2.6610   -16.3750 o          1 A1J      -0.598100
     20 H1         -10.2960     5.3450   -18.2990 hc         1 A1J       0.041144
     21 H2          -8.7020     6.0730   -18.4950 hc         1 A1J       0.041144
     22 H3          -9.1650     4.6970   -19.4890 hc         1 A1J       0.041144
     23 H4         -14.2650     6.1870   -20.8950 h1         1 A1J       0.049700
     24 H5         -15.5980     5.0560   -21.2070 h1         1 A1J       0.049700
     25 H6         -15.4820     5.8830   -19.6380 h1         1 A1J       0.049700
     26 H7         -14.7850     0.7510   -17.9330 h4         1 A1J       0.083100
     27 H8          -6.7810     3.1600   -17.0260 hc         1 A1J       0.041144
     28 H9          -7.0930     3.4230   -18.7440 hc         1 A1J       0.041144
     29 H10         -6.6000     4.7660   -17.7290 hc         1 A1J       0.041144
     30 H11         -9.7100     5.2230   -15.7880 hc         1 A1J       0.041144
     31 H12         -8.2960     4.3070   -15.2580 hc         1 A1J       0.041144
     32 H13         -8.0910     5.8300   -16.1180 hc         1 A1J       0.041144
     33 H14        -10.2180     0.3460   -17.6460 h1         1 A1J       0.102700
     34 H15        -10.1220     0.8110   -20.6540 h1         1 A1J       0.036200
     35 H16        -10.7190    -0.6450   -19.8510 h1         1 A1J       0.036200
     36 H17         -8.9420     2.3990   -19.2300 hn         1 A1J       0.327500
     37 H18         -8.4370    -0.7530   -20.4390 ho         1 A1J       0.452000
@<TRIPOS>BOND
     1     1     5 1   
     2     1    20 1   
     3     1    21 1   
     4     1    22 1   
     5     2    12 1   
     6     2    16 1   
     7     2    17 2   
     8     3    16 1   
     9     3    23 1   
    10     3    24 1   
    11     3    25 1   
    12     4    12 2   
    13     4    18 1   
    14     4    26 1   
    15     5     6 1   
    16     5     7 1   
    17     5     8 1   
    18     6    27 1   
    19     6    28 1   
    20     6    29 1   
    21     7    30 1   
    22     7    31 1   
    23     7    32 1   
    24     8    13 1   
    25     8    19 2   
    26     9    10 1   
    27     9    11 1   
    28     9    13 1   
    29     9    33 1   
    30    10    15 1   
    31    10    34 1   
    32    10    35 1   
    33    11    14 2   
    34    11    18 1   
    35    12    14 1   
    36    13    36 1   
    37    15    37 1   
@<TRIPOS>SUBSTRUCTURE
     1 A1J         1 TEMP              0 ****  ****    0 ROOT
