@<TRIPOS>MOLECULE
A1J
   47    49     1     0     0
SMALL
abcg2


@<TRIPOS>ATOM
      1 C02         21.3560    -1.5300     0.1340 cc         1 A1J       0.445900
      2 C04         22.5210    -2.3660    -1.6510 cd         1 A1J       0.106900
      3 C07         21.7890    -2.6540     0.8960 cc         1 A1J      -0.261000
      4 C08         21.6190    -3.1200     2.1940 cd         1 A1J      -0.191000
      5 C09         22.3190    -4.3320     2.2890 cd         1 A1J      -0.180000
      6 C10         22.9090    -4.6020     1.0570 cc         1 A1J      -0.060300
      7 C11         23.7330    -5.7670     0.6000 c5         1 A1J       0.331300
      8 C12         25.0550    -5.2890     0.1210 c1         1 A1J       0.351900
      9 C15         23.0210    -7.8840    -0.2180 c5         1 A1J       0.161300
     10 C16         21.5800    -8.2780     0.0260 c3         1 A1J       0.216600
     11 C25         18.3940    -9.9940     3.9610 c3         1 A1J      -0.467400
     12 C26         16.8990    -9.7300     3.7910 c3         1 A1J      -0.030100
     13 C27         23.9670    -8.1440     0.9430 c5         1 A1J       0.124300
     14 C29         23.9260    -6.8260     1.7230 c5         1 A1J       0.110300
     15 N01         20.5750    -0.5960     0.6860 nv         1 A1J      -1.081900
     16 N03         21.7310    -1.3990    -1.1360 nd         1 A1J      -0.331000
     17 N05         22.9770    -3.4460    -1.0750 nc         1 A1J      -0.252800
     18 N06         22.5860    -3.5710     0.2220 na         1 A1J       0.287900
     19 N13         26.0750    -4.9080    -0.2500 n1         1 A1J      -0.521000
     20 O14         23.0950    -6.4560    -0.4750 os         1 A1J      -0.426000
     21 O17         21.1330    -7.6830     1.2380 os         1 A1J      -0.620400
     22 O19         18.8770    -6.7970     0.4280 o          1 A1J      -0.864500
     23 O20         19.4750    -6.9720     2.9430 o          1 A1J      -0.864500
     24 O21         19.0060    -9.0440     1.4900 os         1 A1J      -0.730800
     25 O23         20.7590   -10.4810     2.7250 o          1 A1J      -0.872000
     26 O24         18.6180   -11.5040     1.6920 o          1 A1J      -0.872000
     27 O28         25.2710    -8.3810     0.4290 oh         1 A1J      -0.740000
     28 O30         25.0970    -6.5770     2.4710 oh         1 A1J      -0.736000
     29 P18         19.5480    -7.5160     1.5550 p5         1 A1J       1.486800
     30 P22         19.2910   -10.3790     2.4260 p5         1 A1J       1.505400
     31 H1          22.8230    -2.2420    -2.6840 h5         1 A1J       0.038100
     32 H2          21.0510    -2.6400     2.9740 ha         1 A1J       0.194000
     33 H3          22.3890    -4.9520     3.1660 ha         1 A1J       0.222000
     34 H4          23.3760    -8.3980    -1.1130 h1         1 A1J       0.063700
     35 H5          20.9700    -7.9360    -0.8130 h1         1 A1J       0.050200
     36 H6          21.5080    -9.3670     0.0980 h1         1 A1J       0.050200
     37 H7          18.5620   -10.8450     4.6270 hc         1 A1J       0.046700
     38 H8          18.8850    -9.1300     4.4110 hc         1 A1J       0.046700
     39 H9          16.4270    -9.5180     4.7530 hc         1 A1J       0.007367
     40 H10         16.7260    -8.8730     3.1380 hc         1 A1J       0.007367
     41 H11         16.3940   -10.5930     3.3530 hc         1 A1J       0.007367
     42 H12         23.6340    -8.9790     1.5640 h1         1 A1J       0.106700
     43 H13         23.0410    -6.8200     2.3510 h1         1 A1J       0.125700
     44 H14         20.2560     0.1760     0.1230 hn         1 A1J       0.496000
     45 H15         20.2350    -0.6830     1.6280 hn         1 A1J       0.496000
     46 H18         25.8990    -8.1480     1.1290 ho         1 A1J       0.504000
     47 H19         24.9350    -6.8190     3.3910 ho         1 A1J       0.510000
@<TRIPOS>BOND
     1     1     3 1   
     2     1    15 1   
     3     1    16 2   
     4     2    16 1   
     5     2    17 2   
     6     2    31 1   
     7     3     4 2   
     8     3    18 1   
     9     4     5 1   
    10     4    32 1   
    11     5     6 2   
    12     5    33 1   
    13     6     7 1   
    14     6    18 1   
    15     7     8 1   
    16     7    14 1   
    17     7    20 1   
    18     8    19 3   
    19     9    10 1   
    20     9    13 1   
    21     9    20 1   
    22     9    34 1   
    23    10    21 1   
    24    10    35 1   
    25    10    36 1   
    26    11    12 1   
    27    11    30 1   
    28    11    37 1   
    29    11    38 1   
    30    12    39 1   
    31    12    40 1   
    32    12    41 1   
    33    13    14 1   
    34    13    27 1   
    35    13    42 1   
    36    14    28 1   
    37    14    43 1   
    38    15    44 1   
    39    15    45 1   
    40    17    18 1   
    41    21    29 1   
    42    22    29 1   
    43    23    29 1   
    44    24    29 1   
    45    24    30 1   
    46    25    30 1   
    47    26    30 1   
    48    27    46 1   
    49    28    47 1   
@<TRIPOS>SUBSTRUCTURE
     1 A1J         1 TEMP              0 ****  ****    0 ROOT
