@<TRIPOS>MOLECULE
A1J
   52    56     1     0     0
SMALL
abcg2


@<TRIPOS>ATOM
      1 C3          13.1810   -40.2730    29.2660 ca         1 A1J      -0.085000
      2 N1          16.2990   -41.5690    29.9820 nc         1 A1J      -0.419300
      3 C5          11.9670   -39.5930    27.2980 ca         1 A1J      -0.100000
      4 O3          22.2680   -44.0030    26.3440 o          1 A1J      -0.530500
      5 O2          20.8080   -45.6650    27.4960 o          1 A1J      -0.530500
      6 C12         22.4460   -44.2750    28.9390 ca         1 A1J      -0.381500
      7 C19         23.2630   -43.1500    29.2220 ca         1 A1J       0.009000
      8 N4          23.4940   -42.0600    28.5260 nc         1 A1J      -0.003000
      9 O1          24.3430   -41.3110    29.3080 os         1 A1J      -0.034000
     10 N3          24.6430   -41.9240    30.4770 nc         1 A1J       0.027000
     11 C18         23.9940   -43.0650    30.4630 ca         1 A1J      -0.140000
     12 C15         23.9360   -44.1220    31.4570 ca         1 A1J       0.445000
     13 N2          24.6180   -44.0710    32.6110 nh         1 A1J      -0.780400
     14 C17         24.4880   -45.1740    33.5580 c3         1 A1J       0.203600
     15 C16         25.4740   -42.9430    32.9730 c3         1 A1J       0.203600
     16 C14         23.1030   -45.1980    31.1130 ca         1 A1J      -0.304000
     17 C13         22.3880   -45.2530    29.9120 ca         1 A1J       0.131000
     18 C11         20.2450   -43.1080    27.7380 ca         1 A1J      -0.238500
     19 C10         19.1780   -43.3620    28.5770 ca         1 A1J      -0.006000
     20 C20         20.4180   -41.8600    27.1250 ca         1 A1J      -0.015000
     21 C21         19.5070   -40.8510    27.3700 ca         1 A1J      -0.069000
     22 C22         18.4290   -41.0800    28.2290 ca         1 A1J      -0.097600
     23 C           17.4700   -40.0090    28.5220 c          1 A1J       0.552600
     24 O           17.5300   -38.8840    28.0290 o          1 A1J      -0.541000
     25 C9          18.2560   -42.3390    28.8290 ca         1 A1J      -0.148900
     26 C8          17.1340   -42.5120    29.7030 cd         1 A1J       0.370800
     27 N           16.4760   -40.3500    29.4200 n          1 A1J      -0.155800
     28 C1          15.4620   -39.3510    29.8000 c3         1 A1J       0.166300
     29 C2          14.2330   -39.4220    28.9270 ca         1 A1J      -0.120300
     30 C7          14.1380   -38.6530    27.7670 ca         1 A1J      -0.085000
     31 C6          13.0110   -38.7380    26.9560 ca         1 A1J      -0.117500
     32 C4          12.0540   -40.3610    28.4560 ca         1 A1J      -0.117500
     33 H2          13.2450   -40.8650    30.1710 ha         1 A1J       0.122000
     34 H4          11.0890   -39.6580    26.6680 ha         1 A1J       0.112000
     35 H16         25.1130   -44.9700    34.4210 h1         1 A1J       0.057367
     36 H14         23.4520   -45.2840    33.8880 h1         1 A1J       0.057367
     37 H15         24.8110   -46.1140    33.1040 h1         1 A1J       0.057367
     38 H12         25.9340   -43.1580    33.9320 h1         1 A1J       0.057367
     39 H13         26.2580   -42.7950    32.2300 h1         1 A1J       0.057367
     40 H11         24.8950   -42.0230    33.0550 h1         1 A1J       0.057367
     41 H10         22.9920   -46.0240    31.7950 ha         1 A1J       0.127000
     42 H9          21.7550   -46.1120    29.7380 ha         1 A1J       0.141000
     43 H8          19.0560   -44.3300    29.0450 ha         1 A1J       0.133000
     44 H17         21.2610   -41.6960    26.4710 ha         1 A1J       0.155000
     45 H18         19.6220   -39.8800    26.9110 ha         1 A1J       0.147000
     46 H7          16.9550   -43.4680    30.1810 h4         1 A1J       0.044800
     47 H           15.2110   -39.5550    30.8380 h1         1 A1J       0.074200
     48 H1          15.9320   -38.3750    29.7280 h1         1 A1J       0.074200
     49 H6          14.9500   -37.9890    27.5020 ha         1 A1J       0.122000
     50 H5          12.9460   -38.1340    26.0600 ha         1 A1J       0.114000
     51 H3          11.2420   -41.0220    28.7310 ha         1 A1J       0.114000
     52 S           21.4750   -44.3790    27.4970 sy         1 A1J       1.086000
@<TRIPOS>BOND
     1     1    29 ar  
     2     1    32 ar  
     3     1    33 1   
     4     2    26 2   
     5     2    27 1   
     6     3    31 ar  
     7     3    32 ar  
     8     3    34 1   
     9     4    52 2   
    10     5    52 2   
    11     6     7 ar  
    12     6    17 ar  
    13     6    52 1   
    14     7     8 2   
    15     7    11 ar  
    16     8     9 1   
    17     9    10 1   
    18    10    11 2   
    19    11    12 ar  
    20    12    13 1   
    21    12    16 ar  
    22    13    14 1   
    23    13    15 1   
    24    14    35 1   
    25    14    36 1   
    26    14    37 1   
    27    15    38 1   
    28    15    39 1   
    29    15    40 1   
    30    16    17 ar  
    31    16    41 1   
    32    17    42 1   
    33    18    19 ar  
    34    18    20 ar  
    35    18    52 1   
    36    19    25 ar  
    37    19    43 1   
    38    20    21 ar  
    39    20    44 1   
    40    21    22 ar  
    41    21    45 1   
    42    22    23 1   
    43    22    25 ar  
    44    23    24 2   
    45    23    27 1   
    46    25    26 1   
    47    26    46 1   
    48    27    28 1   
    49    28    29 1   
    50    28    47 1   
    51    28    48 1   
    52    29    30 ar  
    53    30    31 ar  
    54    30    49 1   
    55    31    50 1   
    56    32    51 1   
@<TRIPOS>SUBSTRUCTURE
     1 A1J         1 TEMP              0 ****  ****    0 ROOT
