@<TRIPOS>MOLECULE
A1J
   27    28     1     0     0
SMALL
abcg2


@<TRIPOS>ATOM
      1 C10        -19.5140    -4.3950   -25.9830 c3         1 A1J      -0.007400
      2 N12        -17.1740    -4.0890   -25.6030 nc         1 A1J      -0.199800
      3 C15        -17.8980    -6.1150   -25.1500 cc         1 A1J      -0.195000
      4 C17        -22.2970    -3.8290   -31.9020 ca         1 A1J      -0.007900
      5 O01        -25.0440    -2.9640   -31.6020 o          1 A1J      -0.376500
      6 C03        -22.9030    -3.1680   -30.8400 ca         1 A1J      -0.112200
      7 C04        -22.3600    -3.1870   -29.5700 ca         1 A1J      -0.123000
      8 C05        -21.1940    -3.9040   -29.3130 ca         1 A1J      -0.006000
      9 C06        -20.5720    -4.5650   -30.3740 ca         1 A1J      -0.103000
     10 C07        -21.1190    -4.5130   -31.6440 ca         1 A1J      -0.062000
     11 N08        -20.7220    -3.8990   -28.0030 ns         1 A1J      -0.146000
     12 C09        -19.6690    -4.5850   -27.4890 c          1 A1J       0.595100
     13 N11        -18.2370    -4.8760   -25.5430 na         1 A1J       0.123800
     14 N13        -16.1510    -4.7790   -25.2390 nd         1 A1J      -0.344000
     15 C14        -16.5470    -6.0370   -24.9490 cd         1 A1J       0.198900
     16 O16        -18.9250    -5.2990   -28.1220 o          1 A1J      -0.538100
     17 O19        -24.2050    -1.3290   -30.5040 o          1 A1J      -0.376500
     18 H102       -20.3010    -4.9470   -25.4670 h1         1 A1J       0.091200
     19 H101       -19.6120    -3.3460   -25.7010 h1         1 A1J       0.091200
     20 H151       -18.6110    -6.9140   -25.0380 h4         1 A1J       0.168000
     21 H041       -22.8620    -2.6610   -28.7670 ha         1 A1J       0.142000
     22 H061       -19.6600    -5.1180   -30.2300 ha         1 A1J       0.163000
     23 H071       -20.6030    -5.0190   -32.4490 ha         1 A1J       0.145000
     24 H081       -21.2500    -3.3280   -27.3560 hn         1 A1J       0.161000
     25 H141       -15.8610    -6.7990   -24.6180 h4         1 A1J       0.054100
     26 BR18       -22.9370    -3.7670   -33.6630 br         1 A1J      -0.027100
     27 N02        -24.1480    -2.4270   -31.0020 no         1 A1J       0.691200
@<TRIPOS>BOND
     1     1    12 1   
     2     1    13 1   
     3     1    18 1   
     4     1    19 1   
     5     2    13 1   
     6     2    14 2   
     7     3    13 1   
     8     3    15 2   
     9     3    20 1   
    10     4     6 ar  
    11     4    10 ar  
    12     4    26 1   
    13     5    27 1   
    14     6     7 ar  
    15     6    27 1   
    16     7     8 ar  
    17     7    21 1   
    18     8     9 ar  
    19     8    11 1   
    20     9    10 ar  
    21     9    22 1   
    22    10    23 1   
    23    11    12 1   
    24    11    24 1   
    25    12    16 2   
    26    14    15 1   
    27    15    25 1   
    28    17    27 1   
@<TRIPOS>SUBSTRUCTURE
     1 A1J         1 TEMP              0 ****  ****    0 ROOT
