@<TRIPOS>MOLECULE
A1J
   31    31     1     0     0
SMALL
abcg2


@<TRIPOS>ATOM
      1 C1          11.0220   -15.3470     2.0970 c3         1 A1J      -0.086100
      2 O1          12.5120   -21.4250     9.2670 oh         1 A1J      -0.629100
      3 C2          11.8090   -15.4710     3.3990 c3         1 A1J      -0.082400
      4 O2           8.9980   -19.3980     8.5300 o          1 A1J      -0.699500
      5 C3          11.6290   -14.2610     4.3150 c3         1 A1J      -0.066400
      6 C4          12.4270   -14.3620     5.6220 c3         1 A1J      -0.157400
      7 C5          11.9400   -15.5200     6.4730 c          1 A1J       0.587100
      8 C6          12.6860   -17.7490     7.3340 ca         1 A1J      -0.131000
      9 C7          13.8510   -18.4760     7.6140 ca         1 A1J      -0.128000
     10 C8          13.7870   -19.6980     8.2560 ca         1 A1J      -0.187000
     11 C9          12.5520   -20.2300     8.6420 ca         1 A1J       0.186100
     12 O3          10.0340   -21.2060     9.3430 o          1 A1J      -0.699500
     13 C10         11.3740   -19.5080     8.3700 ca         1 A1J      -0.234600
     14 C11         10.0240   -20.0600     8.7700 c          1 A1J       0.715600
     15 C12         11.4580   -18.2780     7.7150 ca         1 A1J      -0.042000
     16 N           12.8360   -16.5250     6.6440 ns         1 A1J      -0.133000
     17 O           10.8010   -15.5320     6.9400 o          1 A1J      -0.589100
     18 H1          11.1700   -16.2210     1.4600 hc         1 A1J       0.028367
     19 H4           9.9510   -15.2540     2.2970 hc         1 A1J       0.028367
     20 H3          11.3330   -14.4630     1.5340 hc         1 A1J       0.028367
     21 H14         11.5100   -21.5710     9.4180 ho         1 A1J       0.545000
     22 H6          11.4960   -16.3780     3.9260 hc         1 A1J       0.045200
     23 H5          12.8740   -15.5970     3.1780 hc         1 A1J       0.045200
     24 H7          11.9410   -13.3550     3.7880 hc         1 A1J       0.044200
     25 H8          10.5690   -14.1370     4.5560 hc         1 A1J       0.044200
     26 H9          13.4920   -14.4550     5.4020 hc         1 A1J       0.049200
     27 H10         12.2860   -13.4520     6.2090 hc         1 A1J       0.049200
     28 H12         14.8140   -18.0740     7.3190 ha         1 A1J       0.079000
     29 H13         14.6900   -20.2560     8.4690 ha         1 A1J       0.103000
     30 H16         10.5470   -17.7440     7.5080 ha         1 A1J       0.157000
     31 H11         13.7470   -16.3730     6.2400 hn         1 A1J       0.129000
@<TRIPOS>BOND
     1     1     3 1   
     2     1    18 1   
     3     1    19 1   
     4     1    20 1   
     5     2    11 1   
     6     2    21 1   
     7     3     5 1   
     8     3    22 1   
     9     3    23 1   
    10     4    14 1   
    11     5     6 1   
    12     5    24 1   
    13     5    25 1   
    14     6     7 1   
    15     6    26 1   
    16     6    27 1   
    17     7    16 1   
    18     7    17 2   
    19     8     9 ar  
    20     8    15 ar  
    21     8    16 1   
    22     9    10 ar  
    23     9    28 1   
    24    10    11 ar  
    25    10    29 1   
    26    11    13 ar  
    27    12    14 1   
    28    13    14 1   
    29    13    15 ar  
    30    15    30 1   
    31    16    31 1   
@<TRIPOS>SUBSTRUCTURE
     1 A1J         1 TEMP              0 ****  ****    0 ROOT
