@<TRIPOS>MOLECULE
A1J
   25    27     1     0     0
SMALL
abcg2


@<TRIPOS>ATOM
      1 C13        -21.6390    -2.5470   -24.2880 ce         1 A1J       0.377200
      2 C17        -22.3670    -5.0970   -28.7210 ca         1 A1J      -0.327000
      3 C01        -22.4270    -3.2720   -33.3920 c3         1 A1J       0.029900
      4 C03        -22.3240    -3.7520   -30.7120 cc         1 A1J       0.385100
      5 N04        -22.5230    -4.9840   -31.0470 nd         1 A1J      -0.622700
      6 C05        -22.5530    -5.7750   -29.9380 ca         1 A1J       0.290000
      7 N06        -22.7410    -7.0880   -29.9990 nb         1 A1J      -0.131000
      8 C07        -22.7420    -7.7170   -28.8410 ca         1 A1J       0.156900
      9 N08        -22.5760    -7.1760   -27.6380 nb         1 A1J      -0.221000
     10 C09        -22.3890    -5.8750   -27.5790 ca         1 A1J       0.284500
     11 N10        -22.2130    -5.3160   -26.3170 na         1 A1J      -0.083200
     12 N11        -22.0030    -4.0070   -26.1730 nd         1 A1J      -0.538800
     13 C12        -21.8860    -3.8630   -24.8760 cc         1 A1J       0.505700
     14 N14        -21.5140    -2.4110   -23.0390 n2         1 A1J      -0.692100
     15 N15        -22.0120    -5.0220   -24.1780 nc         1 A1J      -0.649000
     16 C16        -22.2160    -5.9150   -25.1030 cd         1 A1J       0.466400
     17 S18        -22.1500    -3.4110   -29.0000 ss         1 A1J       0.207800
     18 H1         -21.5760    -1.7340   -25.0120 h4         1 A1J      -0.015200
     19 H011       -22.3600    -2.4940   -34.1500 h1         1 A1J       0.079033
     20 H012       -21.6370    -4.0010   -33.5500 h1         1 A1J       0.079033
     21 H013       -23.4010    -3.7490   -33.4460 h1         1 A1J       0.079033
     22 H071       -22.8950    -8.7890   -28.8640 h5         1 A1J       0.063100
     23 H2         -21.3470    -1.4370   -22.8040 hn         1 A1J       0.383400
     24 H161       -22.3680    -6.9740   -24.9680 h5         1 A1J       0.091100
     25 S02        -22.2120    -2.4280   -31.8110 ss         1 A1J      -0.195200
@<TRIPOS>BOND
     1     1    13 1   
     2     1    14 2   
     3     1    18 1   
     4     2     6 ar  
     5     2    10 ar  
     6     2    17 1   
     7     3    19 1   
     8     3    20 1   
     9     3    21 1   
    10     3    25 1   
    11     4     5 2   
    12     4    17 1   
    13     4    25 1   
    14     5     6 1   
    15     6     7 ar  
    16     7     8 ar  
    17     8     9 ar  
    18     8    22 1   
    19     9    10 ar  
    20    10    11 1   
    21    11    12 1   
    22    11    16 1   
    23    12    13 2   
    24    13    15 1   
    25    14    23 1   
    26    15    16 2   
    27    16    24 1   
@<TRIPOS>SUBSTRUCTURE
     1 A1J         1 TEMP              0 ****  ****    0 ROOT
