@<TRIPOS>MOLECULE
A1J
   53    56     1     0     0
SMALL
abcg2


@<TRIPOS>ATOM
      1 N1           4.5520    -1.5660    16.9070 n          1 A1J      -0.276000
      2 C4           5.6950    -3.7570    16.9370 ca         1 A1J      -0.244300
      3 C5           7.0480    -3.4410    16.8940 ca         1 A1J       0.244500
      4 C6           8.0520    -4.1860    17.4790 ca         1 A1J      -0.237000
      5 C7           7.6920    -5.3500    18.1650 ca         1 A1J       0.211100
      6 C8           9.9770    -5.8780    18.7610 c3         1 A1J       0.162600
      7 C10          6.3470    -5.7230    18.2420 ca         1 A1J      -0.237000
      8 C13          4.8040     0.8270    16.8350 cc         1 A1J      -0.260000
      9 C15          6.1930     4.1260    16.3170 ca         1 A1J       0.380900
     10 C17          8.2490     5.8870    18.9200 cc         1 A1J       0.208900
     11 C21          4.9610     3.5170    14.3720 ca         1 A1J       0.056900
     12 C22          4.5300     0.8610    18.1760 cd         1 A1J      -0.048000
     13 C1           4.2310    -0.3170    18.8810 cd         1 A1J      -0.030000
     14 C11          5.4010    -4.9230    17.6390 ca         1 A1J       0.244500
     15 C12          4.8220    -0.4340    16.1120 c          1 A1J       0.572200
     16 C14          5.1360     2.0990    16.1460 ca         1 A1J       0.215800
     17 C16          7.4730     4.8970    18.2770 cc         1 A1J       0.172000
     18 C18          7.3850     3.8590    19.1920 cd         1 A1J      -0.168000
     19 C19          5.7330     4.4570    15.0120 ca         1 A1J      -0.031900
     20 C2           4.2540    -1.5080    18.2300 cc         1 A1J      -0.001400
     21 C3           4.6480    -2.9030    16.2830 c3         1 A1J       0.145300
     22 C9          10.6280    -6.3420    17.4730 c3         1 A1J      -0.126100
     23 F1           7.4060    -2.3170    16.2330 f          1 A1J      -0.167500
     24 F2           4.1040    -5.2970    17.7390 f          1 A1J      -0.167500
     25 N2           5.8920     2.9530    16.8590 nb         1 A1J      -0.254000
     26 N4           8.6160     5.4940    20.1380 nd         1 A1J      -0.507800
     27 N5           8.0830     4.2710    20.2790 na         1 A1J      -0.017200
     28 N6           4.6530     2.3280    14.9350 nb         1 A1J      -0.151000
     29 O1           8.5640    -6.1680    18.7920 os         1 A1J      -0.346100
     30 O2           6.1050     5.6680    14.5370 os         1 A1J      -0.356100
     31 O3           5.0820    -0.5730    14.9170 o          1 A1J      -0.520000
     32 CL1          3.8460    -0.2520    20.5790 cl         1 A1J      -0.179000
     33 H1           7.1440     5.8880    16.5090 hn         1 A1J       0.521000
     34 H2           9.0720    -3.8520    17.3830 ha         1 A1J       0.149500
     35 H3          10.3760    -6.4240    19.6130 h1         1 A1J       0.059200
     36 H4          10.1350    -4.8120    18.9390 h1         1 A1J       0.059200
     37 H5           6.0540    -6.6170    18.7730 ha         1 A1J       0.149500
     38 H10          4.5630     3.7000    13.3820 h4         1 A1J       0.027100
     39 H11          4.5420     1.8090    18.6960 ha         1 A1J       0.211000
     40 H12          6.8980     2.9050    19.1460 h4         1 A1J       0.180000
     41 H13          4.0510    -2.4460    18.7240 h4         1 A1J       0.218000
     42 H14          3.6750    -3.3840    16.3470 h1         1 A1J       0.092200
     43 H15          4.8810    -2.7280    15.2370 h1         1 A1J       0.092200
     44 H16         11.7030    -6.1560    17.5260 hc         1 A1J       0.051367
     45 H17         10.4710    -7.4130    17.3320 hc         1 A1J       0.051367
     46 H18         10.2350    -5.8140    16.6040 hc         1 A1J       0.051367
     47 H19          8.2260     3.7570    21.1330 hn         1 A1J       0.374000
     48 N3           6.9450     5.0270    16.9950 nu         1 A1J      -0.902900
     49 C20          5.6650     6.0350    13.2260 c3         1 A1J       0.151900
     50 H6           8.5440     6.8520    18.5380 h4         1 A1J       0.037100
     51 H7           6.0730     7.0250    13.0420 h1         1 A1J       0.046367
     52 H8           6.0440     5.3310    12.4830 h1         1 A1J       0.046367
     53 H9           4.5740     6.0670    13.1820 h1         1 A1J       0.046367
@<TRIPOS>BOND
     1     1    15 1   
     2     1    20 1   
     3     1    21 1   
     4     2     3 ar  
     5     2    14 ar  
     6     2    21 1   
     7     3     4 ar  
     8     3    23 1   
     9     4     5 ar  
    10     4    34 1   
    11     5     7 ar  
    12     5    29 1   
    13     6    22 1   
    14     6    29 1   
    15     6    35 1   
    16     6    36 1   
    17     7    14 ar  
    18     7    37 1   
    19     8    12 2   
    20     8    15 1   
    21     8    16 1   
    22     9    19 ar  
    23     9    25 ar  
    24     9    48 1   
    25    10    17 1   
    26    10    26 2   
    27    10    50 1   
    28    11    19 ar  
    29    11    28 ar  
    30    11    38 1   
    31    12    13 1   
    32    12    39 1   
    33    13    20 2   
    34    13    32 1   
    35    14    24 1   
    36    15    31 2   
    37    16    25 ar  
    38    16    28 ar  
    39    17    18 2   
    40    17    48 1   
    41    18    27 1   
    42    18    40 1   
    43    19    30 1   
    44    20    41 1   
    45    21    42 1   
    46    21    43 1   
    47    22    44 1   
    48    22    45 1   
    49    22    46 1   
    50    26    27 1   
    51    27    47 1   
    52    30    49 1   
    53    33    48 1   
    54    49    51 1   
    55    49    52 1   
    56    49    53 1   
@<TRIPOS>SUBSTRUCTURE
     1 A1J         1 TEMP              0 ****  ****    0 ROOT
