@<TRIPOS>MOLECULE
A1J
   34    35     1     0     0
SMALL
abcg2


@<TRIPOS>ATOM
      1 C10        -25.2770    -3.9530   -29.8190 ca         1 A1J       0.169100
      2 C13        -25.7870    -1.6710   -31.3700 ca         1 A1J      -0.136000
      3 N01        -22.3950    -1.8550   -24.0320 n8         1 A1J      -0.981200
      4 C03        -22.0480    -4.1630   -24.6920 cc         1 A1J       0.537300
      5 N04        -21.9590    -4.7850   -25.8470 nd         1 A1J      -0.561800
      6 N05        -22.6440    -5.9160   -25.6440 na         1 A1J      -0.064700
      7 C06        -22.8920    -6.8540   -26.7120 c3         1 A1J       0.050600
      8 C07        -24.1490    -6.5180   -27.5150 c3         1 A1J       0.155300
      9 C08        -24.0300    -5.1760   -28.2100 c3         1 A1J       0.167600
     10 O09        -25.1150    -5.0780   -29.1190 os         1 A1J      -0.325100
     11 C11        -24.4230    -2.8550   -29.7550 ca         1 A1J      -0.195000
     12 C12        -24.6920    -1.7350   -30.5280 ca         1 A1J       0.160000
     13 C14        -26.6340    -2.7690   -31.4350 ca         1 A1J      -0.060000
     14 CL15       -23.6150    -0.3830   -30.4300 cl         1 A1J      -0.197000
     15 C16        -26.3840    -3.8930   -30.6740 ca         1 A1J       0.076000
     16 CL17       -27.4440    -5.2540   -30.7630 cl         1 A1J      -0.178000
     17 O18        -25.2910    -6.4800   -26.6990 oh         1 A1J      -0.635000
     18 C19        -23.1270    -5.9270   -24.3990 cd         1 A1J       0.424400
     19 N20        -22.7630    -4.8390   -23.7630 nc         1 A1J      -0.667000
     20 H1         -25.9850    -0.7930   -31.9670 ha         1 A1J       0.136000
     21 H2         -21.9200    -1.0020   -23.7670 hn         1 A1J       0.396500
     22 H3         -22.9820    -1.6130   -24.8200 hn         1 A1J       0.396500
     23 H5         -20.6780    -2.9480   -23.6400 h1         1 A1J       0.046700
     24 H6         -20.8400    -2.5640   -25.3450 h1         1 A1J       0.046700
     25 H7         -23.0020    -7.8450   -26.2700 h1         1 A1J       0.073700
     26 H8         -22.0150    -6.8810   -27.3570 h1         1 A1J       0.073700
     27 H9         -24.2290    -7.2940   -28.2890 h1         1 A1J       0.055700
     28 H10        -23.0760    -5.1200   -28.7450 h1         1 A1J       0.061200
     29 H11        -24.0640    -4.3560   -27.4860 h1         1 A1J       0.061200
     30 H12        -23.5520    -2.8600   -29.1140 ha         1 A1J       0.138000
     31 H13        -27.4960    -2.7440   -32.0880 ha         1 A1J       0.134000
     32 H14        -25.5190    -7.3790   -26.4400 ho         1 A1J       0.445000
     33 H15        -23.7130    -6.7430   -24.0030 h5         1 A1J       0.062100
     34 C02        -21.4070    -2.8380   -24.4470 c3         1 A1J       0.133500
@<TRIPOS>BOND
     1     1    10 1   
     2     1    11 ar  
     3     1    15 ar  
     4     2    12 ar  
     5     2    13 ar  
     6     2    20 1   
     7     3    21 1   
     8     3    22 1   
     9     3    34 1   
    10     4     5 2   
    11     4    19 1   
    12     4    34 1   
    13     5     6 1   
    14     6     7 1   
    15     6    18 1   
    16     7     8 1   
    17     7    25 1   
    18     7    26 1   
    19     8     9 1   
    20     8    17 1   
    21     8    27 1   
    22     9    10 1   
    23     9    28 1   
    24     9    29 1   
    25    11    12 ar  
    26    11    30 1   
    27    12    14 1   
    28    13    15 ar  
    29    13    31 1   
    30    15    16 1   
    31    17    32 1   
    32    18    19 2   
    33    18    33 1   
    34    23    34 1   
    35    24    34 1   
@<TRIPOS>SUBSTRUCTURE
     1 A1J         1 TEMP              0 ****  ****    0 ROOT
