@<TRIPOS>MOLECULE
A1J
   34    36     1     0     0
SMALL
abcg2


@<TRIPOS>ATOM
      1 C10        -17.6120    -6.4630   -25.8860 ca         1 A1J      -0.053000
      2 C13        -20.0900    -4.7320   -31.5400 ca         1 A1J      -0.138000
      3 C15        -21.0540    -3.5070   -33.4090 ca         1 A1J      -0.181000
      4 C20        -22.1260    -3.2220   -28.8150 c5         1 A1J       0.097000
      5 O01        -19.6270    -5.8540   -28.9060 o          1 A1J      -0.617100
      6 C02        -20.4250    -5.0300   -28.4800 c          1 A1J       0.668100
      7 N03        -20.6830    -4.9050   -27.1560 ns         1 A1J      -0.525900
      8 C04        -20.0140    -5.7480   -26.1960 c3         1 A1J       0.173300
      9 C05        -18.5460    -5.4460   -26.0230 ca         1 A1J      -0.154300
     10 C06        -18.0780    -4.1370   -25.9520 ca         1 A1J       0.346900
     11 N07        -16.8050    -3.8140   -25.7620 nb         1 A1J      -0.667000
     12 C08        -15.9250    -4.8000   -25.6300 ca         1 A1J       0.337900
     13 C09        -16.2790    -6.1390   -25.6830 ca         1 A1J      -0.162000
     14 N11        -21.1290    -4.1840   -29.3010 n          1 A1J      -0.237400
     15 C12        -20.9740    -4.0840   -30.6840 ca         1 A1J       0.022000
     16 C14        -20.1490    -4.4260   -32.8970 ca         1 A1J      -0.061000
     17 C16        -21.9200    -2.8870   -32.5230 ca         1 A1J       0.210000
     18 F17        -22.8130    -1.9960   -32.9850 f          1 A1J      -0.180000
     19 C18        -21.8930    -3.1560   -31.1770 ca         1 A1J      -0.197300
     20 C19        -22.7480    -2.6080   -30.0790 c5         1 A1J      -0.023100
     21 H101       -17.9230    -7.5000   -25.9400 ha         1 A1J       0.120000
     22 H131       -19.3740    -5.4500   -31.1800 ha         1 A1J       0.154000
     23 H151       -21.0880    -3.2800   -34.4660 ha         1 A1J       0.133000
     24 H202       -21.6450    -2.4570   -28.2010 h1         1 A1J       0.045700
     25 H201       -22.8780    -3.7250   -28.2060 h1         1 A1J       0.045700
     26 H031       -21.2850    -4.1850   -26.7990 hn         1 A1J       0.318500
     27 H041       -20.5260    -5.6040   -25.2440 h1         1 A1J       0.058200
     28 H042       -20.1400    -6.8000   -26.4580 h1         1 A1J       0.058200
     29 H061       -18.7710    -3.3080   -26.0600 h4         1 A1J       0.011100
     30 H081       -14.8920    -4.5120   -25.4740 h4         1 A1J       0.019100
     31 H091       -15.5260    -6.9080   -25.5750 ha         1 A1J       0.124000
     32 H141       -19.4640    -4.9210   -33.5720 ha         1 A1J       0.119000
     33 H191       -22.7330    -1.5190   -30.0410 hc         1 A1J       0.065700
     34 H192       -23.7900    -2.9120   -30.1980 hc         1 A1J       0.065700
@<TRIPOS>BOND
     1     1     9 ar  
     2     1    13 ar  
     3     1    21 1   
     4     2    15 ar  
     5     2    16 ar  
     6     2    22 1   
     7     3    16 ar  
     8     3    17 ar  
     9     3    23 1   
    10     4    14 1   
    11     4    20 1   
    12     4    24 1   
    13     4    25 1   
    14     5     6 2   
    15     6     7 1   
    16     6    14 1   
    17     7     8 1   
    18     7    26 1   
    19     8     9 1   
    20     8    27 1   
    21     8    28 1   
    22     9    10 ar  
    23    10    11 ar  
    24    10    29 1   
    25    11    12 ar  
    26    12    13 ar  
    27    12    30 1   
    28    13    31 1   
    29    14    15 1   
    30    15    19 ar  
    31    16    32 1   
    32    17    18 1   
    33    17    19 ar  
    34    19    20 1   
    35    20    33 1   
    36    20    34 1   
@<TRIPOS>SUBSTRUCTURE
     1 A1J         1 TEMP              0 ****  ****    0 ROOT
