@<TRIPOS>MOLECULE
A1J
   43    45     1     0     0
SMALL
abcg2


@<TRIPOS>ATOM
      1 N3         124.1050   114.4120   119.0850 nc         1 A1J      -0.599100
      2 C4         123.1820   115.2270   119.4700 cd         1 A1J       0.518800
      3 C6         122.0260   113.6570   120.9080 c          1 A1J       0.608600
      4 C8         123.0540   112.7290   120.4980 cd         1 A1J      -0.262600
      5 C10        124.3740   110.8530   120.3340 cc         1 A1J      -0.321600
      6 C15        124.6730   106.4470   120.4540 c3         1 A1J      -0.122100
      7 C21        119.8940   118.1410   121.9570 ca         1 A1J      -0.107000
      8 C22        120.1210   119.2650   121.1730 ca         1 A1J       0.162000
      9 C24        119.0950   119.9310   120.5340 ca         1 A1J      -0.148000
     10 C26        117.5430   118.3370   121.4620 ca         1 A1J      -0.119000
     11 C11        125.0610   109.5590   120.4320 c          1 A1J       0.639700
     12 C14        125.1570   107.4370   121.4890 c3         1 A1J       0.166600
     13 C18        121.7290   116.5120   122.0980 c          1 A1J       0.601100
     14 C2         124.0260   113.1760   119.6200 cc         1 A1J       0.061400
     15 C25        117.7990   119.4580   120.6830 ca         1 A1J      -0.076000
     16 C27        118.5890   117.6850   122.0970 ca         1 A1J      -0.080000
     17 C9         123.2460   111.3730   120.9160 cd         1 A1J       0.061700
     18 F23        121.3760   119.7060   121.0360 f          1 A1J      -0.169000
     19 N20        120.9720   117.5040   122.6150 ns         1 A1J      -0.168000
     20 N5         122.1710   114.9210   120.3150 n          1 A1J      -0.313300
     21 O12        126.0340   109.3200   119.7520 o          1 A1J      -0.506000
     22 O13        124.5500   108.7320   121.3230 os         1 A1J      -0.431100
     23 O19        122.7070   116.0680   122.6620 o          1 A1J      -0.566100
     24 O7         121.1060   113.4420   121.6710 o          1 A1J      -0.531000
     25 S1         125.1860   111.9700   119.2750 ss         1 A1J       0.368000
     26 H1         123.1900   116.2420   119.0930 h5         1 A1J       0.049800
     27 H2         125.0920   105.4660   120.6790 hc         1 A1J       0.049033
     28 H3         123.5870   106.3570   120.4690 hc         1 A1J       0.049033
     29 H4         124.9870   106.7200   119.4470 hc         1 A1J       0.049033
     30 H5         121.2720   116.7630   119.9960 h1         1 A1J       0.086700
     31 H6         120.2550   115.5900   120.8030 h1         1 A1J       0.086700
     32 H7         119.3070   120.8040   119.9300 ha         1 A1J       0.138000
     33 H8         116.5310   117.9730   121.5770 ha         1 A1J       0.128000
     34 H9         124.8580   107.1270   122.4890 h1         1 A1J       0.060700
     35 H10        126.2430   107.5300   121.4750 h1         1 A1J       0.060700
     36 H11        122.3290   111.1500   122.8300 hc         1 A1J       0.062033
     37 H12        121.2840   110.7630   121.4800 hc         1 A1J       0.062033
     38 H13        122.5410   109.6290   121.9660 hc         1 A1J       0.062033
     39 H14        116.9860   119.9710   120.1870 ha         1 A1J       0.124000
     40 H15        118.4050   116.8120   122.7110 ha         1 A1J       0.135000
     41 H16        121.2850   117.8920   123.4950 hn         1 A1J       0.171000
     42 C17        121.2740   115.9710   120.7460 c3         1 A1J       0.002000
     43 C16        122.3060   110.6790   121.8470 c3         1 A1J      -0.044800
@<TRIPOS>BOND
     1     1     2 2   
     2     1    14 1   
     3     2    20 1   
     4     2    26 1   
     5     3     4 1   
     6     3    20 1   
     7     3    24 2   
     8     4    14 2   
     9     4    17 1   
    10     5    11 1   
    11     5    17 2   
    12     5    25 1   
    13     6    12 1   
    14     6    27 1   
    15     6    28 1   
    16     6    29 1   
    17     7     8 ar  
    18     7    16 ar  
    19     7    19 1   
    20     8     9 ar  
    21     8    18 1   
    22     9    15 ar  
    23     9    32 1   
    24    10    15 ar  
    25    10    16 ar  
    26    10    33 1   
    27    11    21 2   
    28    11    22 1   
    29    12    22 1   
    30    12    34 1   
    31    12    35 1   
    32    13    19 1   
    33    13    23 2   
    34    13    42 1   
    35    14    25 1   
    36    15    39 1   
    37    16    40 1   
    38    17    43 1   
    39    19    41 1   
    40    20    42 1   
    41    30    42 1   
    42    31    42 1   
    43    36    43 1   
    44    37    43 1   
    45    38    43 1   
@<TRIPOS>SUBSTRUCTURE
     1 A1J         1 TEMP              0 ****  ****    0 ROOT
