@<TRIPOS>MOLECULE
A1J
   25    27     1     0     0
SMALL
abcg2


@<TRIPOS>ATOM
      1 C13        -21.9680    -3.2040   -24.1870 ca         1 A1J       0.144900
      2 C15        -20.4150    -4.8180   -24.5550 cp         1 A1J       0.201500
      3 C17        -18.0870    -4.1320   -25.1660 ca         1 A1J       0.377900
      4 C20        -17.2480    -6.7060   -25.2850 ca         1 A1J      -0.180000
      5 C21        -18.5690    -6.4570   -24.9610 ca         1 A1J      -0.033000
      6 C24        -23.4400    -6.5620   -23.7940 ca         1 A1J      -0.091000
      7 C26        -25.1680    -4.9130   -23.3840 ca         1 A1J      -0.112000
      8 C28        -22.9510    -4.1830   -23.9370 ca         1 A1J      -0.152000
      9 N14        -20.7360    -3.5030   -24.4870 nb         1 A1J      -0.180000
     10 C16        -19.0150    -5.1380   -24.8960 cp         1 A1J      -0.204500
     11 N18        -16.8200    -4.3640   -25.4790 nb         1 A1J      -0.676000
     12 C19        -16.4130    -5.6270   -25.5370 ca         1 A1J       0.349900
     13 N22        -21.2350    -5.8130   -24.3460 nb         1 A1J      -0.173000
     14 C23        -22.5160    -5.5230   -24.0320 ca         1 A1J       0.039000
     15 C25        -24.7360    -6.2540   -23.4770 ca         1 A1J      -0.084000
     16 C27        -24.2900    -3.8880   -23.6110 ca         1 A1J      -0.070000
     17 H1         -22.2290    -2.1500   -24.1310 h4         1 A1J       0.026100
     18 H201       -16.8690    -7.7160   -25.3440 ha         1 A1J       0.125000
     19 H211       -19.2510    -7.2720   -24.7590 ha         1 A1J       0.139000
     20 H241       -23.1070    -7.5890   -23.8670 ha         1 A1J       0.135000
     21 H261       -26.1990    -4.7020   -23.1330 ha         1 A1J       0.120000
     22 H191       -15.3720    -5.7900   -25.7950 h4         1 A1J       0.018100
     23 H251       -25.4460    -7.0500   -23.2930 ha         1 A1J       0.119000
     24 H271       -24.6070    -2.8550   -23.5430 ha         1 A1J       0.120000
     25 H171       -18.3910    -3.0930   -25.1260 h4         1 A1J       0.040100
@<TRIPOS>BOND
     1     1     8 ar  
     2     1     9 ar  
     3     1    17 1   
     4     2     9 ar  
     5     2    10 1   
     6     2    13 ar  
     7     3    10 ar  
     8     3    11 ar  
     9     3    25 1   
    10     4     5 ar  
    11     4    12 ar  
    12     4    18 1   
    13     5    10 ar  
    14     5    19 1   
    15     6    14 ar  
    16     6    15 ar  
    17     6    20 1   
    18     7    15 ar  
    19     7    16 ar  
    20     7    21 1   
    21     8    14 ar  
    22     8    16 ar  
    23    11    12 ar  
    24    12    22 1   
    25    13    14 ar  
    26    15    23 1   
    27    16    24 1   
@<TRIPOS>SUBSTRUCTURE
     1 A1J         1 TEMP              0 ****  ****    0 ROOT
