@<TRIPOS>MOLECULE
A1J
   53    55     1     0     0
SMALL
abcg2


@<TRIPOS>ATOM
      1 O            5.3010    51.8400    63.0770 o          1 A1J      -0.595100
      2 C11          6.2420    52.2530    62.3990 c          1 A1J       0.600100
      3 N5           7.4780    52.4210    62.9070 ns         1 A1J      -0.495900
      4 C12          7.8150    52.0060    64.2580 c3         1 A1J       0.069700
      5 C13          7.8820    50.5050    64.4060 ca         1 A1J       0.257300
      6 N7           8.7270    49.8360    63.6190 nb         1 A1J      -0.636000
      7 C17          8.7800    48.5150    63.7610 ca         1 A1J       0.282900
      8 C15          7.9960    47.8260    64.6900 ca         1 A1J       0.308300
      9 C16          8.0570    46.3370    64.8290 c3         1 A1J      -0.141400
     10 N6           7.1510    48.5010    65.4760 nb         1 A1J      -0.640000
     11 C14          7.0950    49.8230    65.3300 ca         1 A1J       0.325900
     12 C9           6.1060    52.5420    60.9220 cy         1 A1J      -0.204700
     13 C8           4.6680    52.8290    60.4410 cy         1 A1J       0.232800
     14 C10          6.0680    51.2370    60.0720 cy         1 A1J       0.232800
     15 N4           4.7200    51.6000    59.6160 nn         1 A1J      -0.769300
     16 C7           3.7510    50.7090    59.3160 ca         1 A1J       0.437900
     17 C6           2.3910    51.0490    59.1300 ca         1 A1J      -0.108000
     18 CL           1.8070    52.6970    59.1680 cl         1 A1J      -0.205000
     19 C5           1.5140    50.0230    58.8480 ca         1 A1J       0.184900
     20 N2           1.8860    48.7500    58.7280 nb         1 A1J      -0.274000
     21 N3           4.1350    49.4340    59.1650 nb         1 A1J      -0.318000
     22 C4           3.2090    48.5130    58.8770 ca         1 A1J       0.431900
     23 N1           3.5990    47.2290    58.6970 nu         1 A1J      -0.915100
     24 C3           4.9160    46.6870    58.9670 c3         1 A1J       0.238800
     25 C2           4.9800    45.8820    60.2650 c3         1 A1J       0.133800
     26 N            4.8150    46.6870    61.4700 n3         1 A1J      -0.703600
     27 C1           5.9980    47.4890    61.7520 c3         1 A1J       0.146600
     28 C            4.4840    45.8520    62.6180 c3         1 A1J       0.146600
     29 H17          8.2230    52.7050    62.2920 hn         1 A1J       0.322500
     30 H18          8.7860    52.4380    64.5000 h1         1 A1J       0.068200
     31 H19          7.0810    52.4090    64.9550 h1         1 A1J       0.068200
     32 H24          9.4660    47.9740    63.1180 h4         1 A1J       0.028100
     33 H21          7.0860    45.8990    64.5880 hc         1 A1J       0.055700
     34 H22          8.8050    45.9090    64.1630 hc         1 A1J       0.055700
     35 H23          8.2980    46.0610    65.8570 hc         1 A1J       0.055700
     36 H20          6.4000    50.3640    65.9630 h4         1 A1J       0.038100
     37 H14          6.8480    53.2620    60.5840 hc         1 A1J       0.078700
     38 H12          3.9280    52.7810    61.2360 h1         1 A1J       0.074700
     39 H13          4.5450    53.7410    59.8620 h1         1 A1J       0.074700
     40 H15          6.8040    51.1800    59.2710 h1         1 A1J       0.074700
     41 H16          6.0900    50.3190    60.6560 h1         1 A1J       0.074700
     42 H11          0.4610    50.2440    58.7090 h4         1 A1J       0.029100
     43 H10          2.8450    46.5750    58.5530 hn         1 A1J       0.500000
     44 H8           5.1950    46.0240    58.1450 h1         1 A1J       0.060700
     45 H9           5.6250    47.5110    58.9760 h1         1 A1J       0.060700
     46 H6           4.1820    45.1360    60.2440 h1         1 A1J       0.033200
     47 H7           5.9360    45.3290    60.2810 h1         1 A1J       0.033200
     48 H3           5.8210    48.1100    62.6310 h1         1 A1J       0.032033
     49 H4           6.8850    46.8620    61.9440 h1         1 A1J       0.032033
     50 H5           6.2210    48.1450    60.9140 h1         1 A1J       0.032033
     51 H            4.3360    46.4810    63.4970 h1         1 A1J       0.032033
     52 H1           3.5630    45.3010    62.4250 h1         1 A1J       0.032033
     53 H2           5.2800    45.1240    62.8530 h1         1 A1J       0.032033
@<TRIPOS>BOND
     1     1     2 2   
     2     2     3 1   
     3     2    12 1   
     4     3     4 1   
     5     3    29 1   
     6     4     5 1   
     7     4    30 1   
     8     4    31 1   
     9     5     6 ar  
    10     5    11 ar  
    11     6     7 ar  
    12     7     8 ar  
    13     7    32 1   
    14     8     9 1   
    15     8    10 ar  
    16     9    33 1   
    17     9    34 1   
    18     9    35 1   
    19    10    11 ar  
    20    11    36 1   
    21    12    13 1   
    22    12    14 1   
    23    12    37 1   
    24    13    15 1   
    25    13    38 1   
    26    13    39 1   
    27    14    15 1   
    28    14    40 1   
    29    14    41 1   
    30    15    16 1   
    31    16    17 ar  
    32    16    21 ar  
    33    17    18 1   
    34    17    19 ar  
    35    19    20 ar  
    36    19    42 1   
    37    20    22 ar  
    38    21    22 ar  
    39    22    23 1   
    40    23    24 1   
    41    23    43 1   
    42    24    25 1   
    43    24    44 1   
    44    24    45 1   
    45    25    26 1   
    46    25    46 1   
    47    25    47 1   
    48    26    27 1   
    49    26    28 1   
    50    27    48 1   
    51    27    49 1   
    52    27    50 1   
    53    28    51 1   
    54    28    52 1   
    55    28    53 1   
@<TRIPOS>SUBSTRUCTURE
     1 A1J         1 TEMP              0 ****  ****    0 ROOT
