@<TRIPOS>MOLECULE
A1J
   62    66     1     0     0
SMALL
abcg2


@<TRIPOS>ATOM
      1 N1          21.8540    -4.4290    16.9040 ns         1 A1J      -0.166000
      2 N3          20.9020    -9.0620    12.7310 n          1 A1J      -0.422800
      3 C4          23.3260    -1.5350    18.6270 ca         1 A1J      -0.084500
      4 C5          24.7040    -1.6760    18.4220 ca         1 A1J      -0.089300
      5 C6          25.6650    -0.6200    18.9470 c6         1 A1J      -0.003400
      6 C7          25.3960    -0.2160    20.4190 c6         1 A1J      -0.053700
      7 C8          25.7830    -1.3580    21.3690 c6         1 A1J      -0.068900
      8 C10         27.7210     0.7210    20.5970 c6         1 A1J      -0.059700
      9 C13         27.5610    -2.0980    19.7770 c6         1 A1J      -0.068900
     10 C15         27.9940     0.2830    19.1510 c6         1 A1J      -0.068900
     11 C17         24.2100    -3.7040    17.1490 ca         1 A1J      -0.151000
     12 C20         21.5130    -7.7650    12.4490 c6         1 A1J       0.105000
     13 C21         20.2550    -9.7500    11.7640 c          1 A1J       0.599100
     14 C22         19.6750   -11.0920    12.1520 c3         1 A1J      -0.174100
     15 C24         21.4850    -8.4420    15.0500 c6         1 A1J      -0.106400
     16 O1          23.0460    -5.7650    15.4580 o          1 A1J      -0.629100
     17 C1          21.9840    -5.4680    16.0050 c          1 A1J       0.660100
     18 C2          22.8400    -3.5480    17.3690 ca         1 A1J      -0.010000
     19 C3          22.4130    -2.4430    18.1170 ca         1 A1J      -0.151000
     20 C9          26.2270     1.0320    20.7550 c6         1 A1J      -0.068900
     21 C11         28.1030    -0.4160    21.5570 c6         1 A1J      -0.068400
     22 C12         27.2800    -1.6700    21.2240 c6         1 A1J      -0.059700
     23 C14         27.1650    -0.9660    18.8140 c6         1 A1J      -0.053700
     24 C16         25.1090    -2.7760    17.6680 ca         1 A1J      -0.084500
     25 N2          20.8220    -6.1430    15.7840 ns         1 A1J      -0.528900
     26 C18         20.6600    -7.1830    14.7720 c6         1 A1J       0.144700
     27 C19         20.9080    -6.6720    13.3330 c6         1 A1J      -0.106400
     28 O2          20.1300    -9.3190    10.6100 o          1 A1J      -0.615100
     29 C23         21.0470    -9.5630    14.1080 c6         1 A1J       0.105000
     30 H1          20.9220    -4.2280    17.2310 hn         1 A1J       0.141000
     31 H2          22.9470    -0.6910    19.1890 ha         1 A1J       0.112500
     32 H3          25.4920     0.2780    18.3400 hc         1 A1J       0.052700
     33 H4          24.3390     0.0210    20.5470 hc         1 A1J       0.047700
     34 H5          25.5590    -1.0670    22.3990 hc         1 A1J       0.040825
     35 H6          25.1910    -2.2510    21.1490 hc         1 A1J       0.040825
     36 H7          28.3100     1.6130    20.8290 hc         1 A1J       0.047700
     37 H8          27.0110    -3.0130    19.5510 hc         1 A1J       0.040825
     38 H9          28.6250    -2.3230    19.6520 hc         1 A1J       0.040825
     39 H10         29.0580     0.0620    19.0210 hc         1 A1J       0.040825
     40 H11         27.7440     1.0950    18.4610 hc         1 A1J       0.040825
     41 H12         24.5680    -4.5410    16.5750 ha         1 A1J       0.127000
     42 H13         22.5880    -7.8410    12.6270 h1         1 A1J       0.054700
     43 H14         21.3640    -7.5470    11.3970 h1         1 A1J       0.054700
     44 H15         19.2890   -11.5730    11.2570 hc         1 A1J       0.059700
     45 H16         20.4250   -11.7350    12.6160 hc         1 A1J       0.059700
     46 H17         18.8610   -10.9690    12.8700 hc         1 A1J       0.059700
     47 H18         21.3260    -8.7720    16.0770 hc         1 A1J       0.065200
     48 H19         22.5460    -8.2270    14.9360 hc         1 A1J       0.065200
     49 H20         21.3540    -2.2970    18.2940 ha         1 A1J       0.127000
     50 H21         25.9410     1.8570    20.0960 hc         1 A1J       0.040825
     51 H22         26.0170     1.3480    21.7820 hc         1 A1J       0.040825
     52 H23         29.1720    -0.6370    21.4710 hc         1 A1J       0.038700
     53 H24         27.9160    -0.1100    22.5910 hc         1 A1J       0.038700
     54 H25         27.5540    -2.4810    21.9050 hc         1 A1J       0.047700
     55 H26         27.3830    -1.2630    17.7850 hc         1 A1J       0.047700
     56 H27         26.1590    -2.9360    17.4650 ha         1 A1J       0.112500
     57 H28         19.9830    -5.8180    16.2330 hn         1 A1J       0.308500
     58 H29         19.6110    -7.4730    14.8540 h1         1 A1J       0.045700
     59 H30         21.5960    -5.8280    13.3560 hc         1 A1J       0.065200
     60 H31         19.9660    -6.3220    12.9070 hc         1 A1J       0.065200
     61 H32         20.0850    -9.9530    14.4440 h1         1 A1J       0.054700
     62 H33         21.7690   -10.3830    14.1390 h1         1 A1J       0.054700
@<TRIPOS>BOND
     1     1    17 1   
     2     1    18 1   
     3     1    30 1   
     4     2    12 1   
     5     2    13 1   
     6     2    29 1   
     7     3     4 ar  
     8     3    19 ar  
     9     3    31 1   
    10     4     5 1   
    11     4    24 ar  
    12     5     6 1   
    13     5    23 1   
    14     5    32 1   
    15     6     7 1   
    16     6    20 1   
    17     6    33 1   
    18     7    22 1   
    19     7    34 1   
    20     7    35 1   
    21     8    10 1   
    22     8    20 1   
    23     8    21 1   
    24     8    36 1   
    25     9    22 1   
    26     9    23 1   
    27     9    37 1   
    28     9    38 1   
    29    10    23 1   
    30    10    39 1   
    31    10    40 1   
    32    11    18 ar  
    33    11    24 ar  
    34    11    41 1   
    35    12    27 1   
    36    12    42 1   
    37    12    43 1   
    38    13    14 1   
    39    13    28 2   
    40    14    44 1   
    41    14    45 1   
    42    14    46 1   
    43    15    26 1   
    44    15    29 1   
    45    15    47 1   
    46    15    48 1   
    47    16    17 2   
    48    17    25 1   
    49    18    19 ar  
    50    19    49 1   
    51    20    50 1   
    52    20    51 1   
    53    21    22 1   
    54    21    52 1   
    55    21    53 1   
    56    22    54 1   
    57    23    55 1   
    58    24    56 1   
    59    25    26 1   
    60    25    57 1   
    61    26    27 1   
    62    26    58 1   
    63    27    59 1   
    64    27    60 1   
    65    29    61 1   
    66    29    62 1   
@<TRIPOS>SUBSTRUCTURE
     1 A1J         1 TEMP              0 ****  ****    0 ROOT
