@<TRIPOS>MOLECULE
A1J
   70    73     1     0     0
SMALL
abcg2


@<TRIPOS>ATOM
      1 N3         -22.2210     8.9840    -3.5110 n          1 A1J      -0.416800
      2 C4         -22.4050     9.2240    -4.9420 c3         1 A1J       0.085300
      3 C5         -22.0360    10.0700    -2.7330 c          1 A1J       0.592100
      4 C6         -21.9060     9.8750    -1.2250 c3         1 A1J       0.010300
      5 C7         -22.9480    10.6760    -0.4060 c6         1 A1J       0.214000
      6 C8         -24.3560    10.4210    -0.9730 c6         1 A1J      -0.141900
      7 C15        -19.2820     8.9700    -1.5050 c6         1 A1J       0.247300
      8 C17        -17.0150     8.1320    -2.0820 c6         1 A1J       0.066300
      9 C21        -13.5110     8.7780    -1.5790 cc         1 A1J       0.238500
     10 C22        -12.2340     9.1190    -0.9540 ca         1 A1J      -0.058500
     11 C24         -9.8630     9.4510    -1.1230 ca         1 A1J       0.157000
     12 C26        -12.1680     9.4300     0.4080 ca         1 A1J      -0.130500
     13 C1         -23.6070     6.9870    -2.9390 c3         1 A1J      -0.108100
     14 C2         -22.2120     7.5790    -3.0840 c3         1 A1J       0.099000
     15 C9         -25.4010    11.2610    -0.2530 c6         1 A1J       0.152100
     16 O10        -25.0900    12.6520    -0.3240 os         1 A1J      -0.450000
     17 C11        -23.8420    12.9350     0.3010 c6         1 A1J       0.152100
     18 C12        -22.6900    12.1860    -0.3610 c6         1 A1J      -0.141900
     19 O13        -22.8540    10.1020     0.9120 oh         1 A1J      -0.665000
     20 S14        -20.1970    10.3010    -0.6890 ss         1 A1J      -0.344000
     21 C16        -17.7850     9.3180    -1.5020 c6         1 A1J       0.152300
     22 N18        -15.5790     8.3720    -2.0620 na         1 A1J       0.124800
     23 N19        -14.8540     8.1590    -3.1750 nd         1 A1J      -0.190800
     24 N20        -13.6090     8.4030    -2.8870 nc         1 A1J      -0.344000
     25 C23        -11.0640     9.1320    -1.7210 ca         1 A1J      -0.130500
     26 F25         -8.7280     9.4660    -1.8450 f          1 A1J      -0.157500
     27 C27        -10.9510     9.7470     0.9750 ca         1 A1J       0.157000
     28 F28        -10.8700    10.0460     2.2840 f          1 A1J      -0.157500
     29 C29         -9.7840     9.7630     0.2260 ca         1 A1J       0.090000
     30 F30         -8.6080    10.0720     0.7900 f          1 A1J      -0.144000
     31 C31        -14.7840     8.7590    -1.0450 cd         1 A1J      -0.170000
     32 O32        -17.5030    10.4320    -2.3300 oh         1 A1J      -0.709000
     33 O33        -19.5300     7.7560    -0.8210 os         1 A1J      -0.418000
     34 C34        -18.8910     6.6360    -1.4450 c6         1 A1J       0.155300
     35 C35        -19.3630     5.3790    -0.7510 c3         1 A1J       0.170600
     36 O36        -20.7280     5.1580    -1.1000 oh         1 A1J      -0.730000
     37 C37        -17.3750     6.8060    -1.3910 c6         1 A1J       0.134300
     38 O38        -16.9440     6.7890    -0.0360 oh         1 A1J      -0.707000
     39 O39        -21.9770    11.2020    -3.2240 o          1 A1J      -0.595100
     40 H4A        -23.1710     9.9800    -5.1070 h1         1 A1J       0.046033
     41 H4B        -21.4750     9.5710    -5.3990 h1         1 A1J       0.046033
     42 H4C        -22.7090     8.2950    -5.4150 h1         1 A1J       0.046033
     43 H6         -22.0610     8.8410    -0.9360 h1         1 A1J       0.107700
     44 H8A        -24.3790    10.6760    -2.0330 hc         1 A1J       0.074450
     45 H8B        -24.5980     9.3620    -0.8730 hc         1 A1J       0.074450
     46 H15        -19.6110     8.8910    -2.5480 h2         1 A1J       0.068700
     47 H17        -17.2740     8.0460    -3.1390 h1         1 A1J       0.108700
     48 H26        -13.0470     9.4270     1.0370 ha         1 A1J       0.148500
     49 H1A        -23.5320     5.9250    -2.7000 hc         1 A1J       0.044033
     50 H1B        -24.1570     7.4830    -2.1380 hc         1 A1J       0.044033
     51 H1C        -24.1780     7.0900    -3.8640 hc         1 A1J       0.044033
     52 H2A        -21.6590     7.4740    -2.1580 h1         1 A1J       0.058200
     53 H2B        -21.6450     7.0280    -3.8370 h1         1 A1J       0.058200
     54 H9A        -26.3780    11.1370    -0.7200 h1         1 A1J       0.046700
     55 H9B        -25.4870    10.9590     0.8000 h1         1 A1J       0.046700
     56 H11A       -23.6880    14.0100     0.2170 h1         1 A1J       0.046700
     57 H11B       -23.9110    12.6950     1.3730 h1         1 A1J       0.046700
     58 H12A       -22.5640    12.5420    -1.3820 hc         1 A1J       0.074450
     59 H12B       -21.7670    12.3920     0.1840 hc         1 A1J       0.074450
     60 H13        -23.2370    10.7100     1.5560 ho         1 A1J       0.448000
     61 H16        -17.4700     9.5010    -0.4700 h1         1 A1J       0.071700
     62 H23        -11.0850     8.8960    -2.7750 ha         1 A1J       0.148500
     63 H31        -15.1640     8.9850    -0.0650 h4         1 A1J       0.176000
     64 H32        -17.9500    11.2090    -1.9670 ho         1 A1J       0.531000
     65 H34        -19.1910     6.5900    -2.5000 h1         1 A1J       0.056700
     66 H35A       -18.7360     4.5430    -1.0800 h1         1 A1J       0.045200
     67 H35B       -19.2480     5.4950     0.3290 h1         1 A1J       0.045200
     68 H36        -21.0690     4.4420    -0.5510 ho         1 A1J       0.513000
     69 H37        -16.9090     5.9910    -1.9500 h1         1 A1J       0.061700
     70 H38        -16.0830     6.3590     0.0150 ho         1 A1J       0.512000
@<TRIPOS>BOND
     1     1     2 1   
     2     1     3 1   
     3     1    14 1   
     4     2    40 1   
     5     2    41 1   
     6     2    42 1   
     7     3     4 1   
     8     3    39 2   
     9     4     5 1   
    10     4    20 1   
    11     4    43 1   
    12     5     6 1   
    13     5    18 1   
    14     5    19 1   
    15     6    15 1   
    16     6    44 1   
    17     6    45 1   
    18     7    20 1   
    19     7    21 1   
    20     7    33 1   
    21     7    46 1   
    22     8    21 1   
    23     8    22 1   
    24     8    37 1   
    25     8    47 1   
    26     9    10 1   
    27     9    24 1   
    28     9    31 2   
    29    10    12 ar  
    30    10    25 ar  
    31    11    25 ar  
    32    11    26 1   
    33    11    29 ar  
    34    12    27 ar  
    35    12    48 1   
    36    13    14 1   
    37    13    49 1   
    38    13    50 1   
    39    13    51 1   
    40    14    52 1   
    41    14    53 1   
    42    15    16 1   
    43    15    54 1   
    44    15    55 1   
    45    16    17 1   
    46    17    18 1   
    47    17    56 1   
    48    17    57 1   
    49    18    58 1   
    50    18    59 1   
    51    19    60 1   
    52    21    32 1   
    53    21    61 1   
    54    22    23 1   
    55    22    31 1   
    56    23    24 2   
    57    25    62 1   
    58    27    28 1   
    59    27    29 ar  
    60    29    30 1   
    61    31    63 1   
    62    32    64 1   
    63    33    34 1   
    64    34    35 1   
    65    34    37 1   
    66    34    65 1   
    67    35    36 1   
    68    35    66 1   
    69    35    67 1   
    70    36    68 1   
    71    37    38 1   
    72    37    69 1   
    73    38    70 1   
@<TRIPOS>SUBSTRUCTURE
     1 A1J         1 TEMP              0 ****  ****    0 ROOT
