@<TRIPOS>MOLECULE
A1J
   76    80     1     0     0
SMALL
abcg2


@<TRIPOS>ATOM
      1 N1         -22.1320     9.0470    -2.9360 n          1 A1J      -0.414800
      2 N3         -15.7240     8.2820    -1.5550 na         1 A1J       0.125800
      3 C4         -17.1590     8.0550    -1.4610 c6         1 A1J       0.067300
      4 C5         -21.9700     9.8740    -0.6090 c3         1 A1J       0.003300
      5 C6         -22.0210    10.1160    -2.1170 c          1 A1J       0.599100
      6 C8         -12.2840     8.9560    -0.7250 ca         1 A1J      -0.058500
      7 C10        -12.0780     9.1770     0.6410 ca         1 A1J      -0.130500
      8 C13        -14.8410     8.6330    -0.5990 cc         1 A1J      -0.170000
      9 C17        -24.4210    10.3810    -0.4920 c6         1 A1J      -0.104900
     10 C20        -23.9470    12.9080     0.9580 c6         1 A1J      -0.121900
     11 C21        -25.2730    12.5880     0.3100 c6         1 A1J       0.167000
     12 C24        -23.6570     7.1170    -2.9990 c6         1 A1J      -0.096400
     13 C26        -23.6270     8.8040    -4.8700 c6         1 A1J      -0.096400
     14 C2         -18.9990     6.5770    -0.6930 c6         1 A1J       0.155300
     15 C1         -17.4810     6.7420    -0.7290 c6         1 A1J       0.133300
     16 C7         -17.8800     9.2510    -0.8430 c6         1 A1J       0.152300
     17 O5         -17.6280    10.3630    -1.6820 oh         1 A1J      -0.708000
     18 NAA        -15.1010     8.0980    -2.7320 nc         1 A1J      -0.190800
     19 N2         -13.8340     8.3230    -2.5470 nd         1 A1J      -0.345000
     20 CAA        -13.6180     8.6570    -1.2420 cd         1 A1J       0.238500
     21 CAB        -11.1980     9.0130    -1.6030 ca         1 A1J      -0.130500
     22 C9          -9.9380     9.2790    -1.1110 ca         1 A1J       0.157500
     23 F1          -8.8840     9.3350    -1.9440 f          1 A1J      -0.157500
     24 C11        -10.8040     9.4430     1.1010 ca         1 A1J       0.157500
     25 F2         -10.5860     9.6540     2.4110 f          1 A1J      -0.157500
     26 C12         -9.7180     9.4950     0.2410 ca         1 A1J       0.090000
     27 F3          -8.4860     9.7450     0.7050 f          1 A1J      -0.144000
     28 O4         -16.9670     6.7450     0.5990 oh         1 A1J      -0.708000
     29 O2         -19.6020     7.7130    -0.0610 os         1 A1J      -0.416000
     30 C14        -19.3780     8.9110    -0.7830 c6         1 A1J       0.244300
     31 S1         -20.2810    10.2620     0.0120 ss         1 A1J      -0.340000
     32 C16        -23.0580    10.6440     0.1770 c6         1 A1J       0.212000
     33 C18        -25.5640    11.1100     0.2140 c6         1 A1J      -0.121900
     34 C19        -22.7970    12.1520     0.2830 c6         1 A1J      -0.104900
     35 F4         -26.2940    13.2270     0.9950 f          1 A1J      -0.122500
     36 F5         -25.3050    13.1450    -0.9650 f          1 A1J      -0.122500
     37 OP3        -23.0400    10.0280     1.4770 oh         1 A1J      -0.663000
     38 C23        -22.2870     7.6370    -2.5670 c6         1 A1J       0.093000
     39 C25        -23.8810     7.3430    -4.4950 c6         1 A1J      -0.076400
     40 C27        -22.2530     9.2610    -4.3830 c6         1 A1J       0.093000
     41 O6         -21.9400    11.2690    -2.5520 o          1 A1J      -0.596100
     42 H6         -17.4950     7.9580    -2.4940 h1         1 A1J       0.107700
     43 H14        -22.1360     8.8340    -0.3540 h1         1 A1J       0.107700
     44 H10        -12.8890     9.1370     1.3550 ha         1 A1J       0.148500
     45 H11        -15.1330     8.8320     0.4150 h4         1 A1J       0.176000
     46 H15        -24.3810    10.7070    -1.5320 hc         1 A1J       0.075450
     47 H16        -24.6130     9.3070    -0.4910 hc         1 A1J       0.075450
     48 H21        -24.0320    12.6490     2.0160 hc         1 A1J       0.069700
     49 H22        -23.7760    13.9840     0.9050 hc         1 A1J       0.069700
     50 H26        -23.7230     6.0540    -2.7550 hc         1 A1J       0.051950
     51 H27        -24.4270     7.6360    -2.4210 hc         1 A1J       0.051950
     52 H30        -23.6840     8.9400    -5.9530 hc         1 A1J       0.051950
     53 H31        -24.3910     9.4440    -4.4180 hc         1 A1J       0.051950
     54 H1         -21.1280     4.4030     0.3540 ho         1 A1J       0.512000
     55 H4         -19.3560     6.5090    -1.7280 h1         1 A1J       0.056700
     56 H5         -17.0520     5.9160    -1.3010 h1         1 A1J       0.061700
     57 H7         -17.5150     9.4300     0.1740 h1         1 A1J       0.072700
     58 H8         -18.0950    11.1300    -1.3230 ho         1 A1J       0.531000
     59 H9         -11.3290     8.8500    -2.6630 ha         1 A1J       0.148500
     60 H12        -16.1190     6.2870     0.6080 ho         1 A1J       0.512000
     61 H13        -19.7380     8.8030    -1.8120 h2         1 A1J       0.069700
     62 H17        -26.5030    10.9680    -0.3240 hc         1 A1J       0.069700
     63 H18        -25.7000    10.7320     1.2280 hc         1 A1J       0.069700
     64 H19        -21.8790    12.3250     0.8460 hc         1 A1J       0.075450
     65 H20        -22.6390    12.5360    -0.7220 hc         1 A1J       0.075450
     66 H23        -23.4120    10.6320     2.1300 ho         1 A1J       0.449000
     67 H24        -21.5000     7.0800    -3.0850 h1         1 A1J       0.061200
     68 H25        -22.1320     7.4900    -1.5060 h1         1 A1J       0.061200
     69 H28        -23.1920     6.7050    -5.0590 hc         1 A1J       0.044200
     70 H29        -24.8930     7.0470    -4.7770 hc         1 A1J       0.044200
     71 H32        -21.4680     8.6770    -4.8730 h1         1 A1J       0.061200
     72 H33        -22.0840    10.3120    -4.5900 h1         1 A1J       0.061200
     73 C3         -19.4350     5.3370     0.0520 c3         1 A1J       0.170600
     74 H2         -19.2700     5.4770     1.1230 h1         1 A1J       0.044700
     75 O3         -20.8160     5.1070    -0.2270 oh         1 A1J      -0.728000
     76 H3         -18.8240     4.4940    -0.2870 h1         1 A1J       0.044700
@<TRIPOS>BOND
     1     1     5 1   
     2     1    38 1   
     3     1    40 1   
     4     2     3 1   
     5     2     8 1   
     6     2    18 1   
     7     3    15 1   
     8     3    16 1   
     9     3    42 1   
    10     4     5 1   
    11     4    31 1   
    12     4    32 1   
    13     4    43 1   
    14     5    41 2   
    15     6     7 ar  
    16     6    20 1   
    17     6    21 ar  
    18     7    24 ar  
    19     7    44 1   
    20     8    20 2   
    21     8    45 1   
    22     9    32 1   
    23     9    33 1   
    24     9    46 1   
    25     9    47 1   
    26    10    11 1   
    27    10    34 1   
    28    10    48 1   
    29    10    49 1   
    30    11    33 1   
    31    11    35 1   
    32    11    36 1   
    33    12    38 1   
    34    12    39 1   
    35    12    50 1   
    36    12    51 1   
    37    13    39 1   
    38    13    40 1   
    39    13    52 1   
    40    13    53 1   
    41    14    15 1   
    42    14    29 1   
    43    14    55 1   
    44    14    73 1   
    45    15    28 1   
    46    15    56 1   
    47    16    17 1   
    48    16    30 1   
    49    16    57 1   
    50    17    58 1   
    51    18    19 2   
    52    19    20 1   
    53    21    22 ar  
    54    21    59 1   
    55    22    23 1   
    56    22    26 ar  
    57    24    25 1   
    58    24    26 ar  
    59    26    27 1   
    60    28    60 1   
    61    29    30 1   
    62    30    31 1   
    63    30    61 1   
    64    32    34 1   
    65    32    37 1   
    66    33    62 1   
    67    33    63 1   
    68    34    64 1   
    69    34    65 1   
    70    37    66 1   
    71    38    67 1   
    72    38    68 1   
    73    39    69 1   
    74    39    70 1   
    75    40    71 1   
    76    40    72 1   
    77    54    75 1   
    78    73    74 1   
    79    73    75 1   
    80    73    76 1   
@<TRIPOS>SUBSTRUCTURE
     1 A1J         1 TEMP              0 ****  ****    0 ROOT
