@<TRIPOS>MOLECULE
A1J
   78    83     1     0     0
SMALL
abcg2


@<TRIPOS>ATOM
      1 N1         -15.7130     8.4230    -1.4910 na         1 A1J       0.125800
      2 N3         -13.8360     8.5360    -2.5050 nc         1 A1J      -0.346000
      3 C4         -17.5100     6.9400    -0.6450 c6         1 A1J       0.133300
      4 C5         -19.0340     6.8040    -0.6530 c6         1 A1J       0.136300
      5 C6         -19.5050     5.5870     0.1100 c3         1 A1J       0.169600
      6 C7         -13.5970     8.7330    -1.1770 cc         1 A1J       0.230500
      7 C8         -12.2520     8.9480    -0.6430 ca         1 A1J      -0.056500
      8 C10        -10.7570     9.1930     1.2190 ca         1 A1J       0.157500
      9 C13         -9.6720     9.3240     0.3650 ca         1 A1J       0.088000
     10 C15        -19.3630     9.1620    -0.7640 c6         1 A1J       0.272300
     11 C17        -23.0260    10.8500     0.2130 c6         1 A1J       0.208000
     12 C20        -22.7710    12.3310     0.5250 c6         1 A1J      -0.103900
     13 C21        -23.9270    12.9970     1.2810 c6         1 A1J      -0.122400
     14 C22        -25.2410    12.7710     0.5740 c6         1 A1J       0.167000
     15 C24        -21.6140    12.3180    -3.6670 ca         1 A1J       0.341900
     16 C26        -22.3810    10.2070    -4.4490 ca         1 A1J      -0.076000
     17 C28        -22.8070     8.3420    -2.8110 cx         1 A1J      -0.096400
     18 O1         -17.5890    10.5490    -1.6690 os         1 A1J      -0.450000
     19 C2         -17.8530     9.4550    -0.8120 c6         1 A1J       0.149300
     20 C3         -17.1520     8.2230    -1.3970 c6         1 A1J       0.073300
     21 O2         -20.8950     5.3900    -0.1470 oh         1 A1J      -0.719000
     22 O3         -19.6300     7.9600    -0.0570 os         1 A1J      -0.418000
     23 O4         -16.9960     7.0190     0.6820 oh         1 A1J      -0.715000
     24 N2         -15.1090     8.3510    -2.6920 nd         1 A1J      -0.190800
     25 C9         -12.0360     9.0070     0.7380 ca         1 A1J      -0.132000
     26 F1         -10.5310     9.2430     2.5440 f          1 A1J      -0.158500
     27 C11        -11.1660     9.0820    -1.5160 ca         1 A1J      -0.132000
     28 C12         -9.9000     9.2650    -1.0010 ca         1 A1J       0.157500
     29 F2          -8.8440     9.3920    -1.8250 f          1 A1J      -0.158500
     30 F3          -8.4340     9.4980     0.8490 f          1 A1J      -0.144000
     31 C14        -14.8100     8.6650    -0.5200 cd         1 A1J      -0.163000
     32 S1         -20.2480    10.5150     0.0430 ss         1 A1J      -0.334000
     33 C16        -21.9210    10.2190    -0.6760 c3         1 A1J       0.039000
     34 C18        -24.3900    10.6780    -0.4830 c6         1 A1J      -0.103900
     35 C19        -25.5370    11.3180     0.3000 c6         1 A1J      -0.122400
     36 F5         -25.2410    13.4720    -0.6290 f          1 A1J      -0.125000
     37 O5         -23.0080    10.0610     1.4160 oh         1 A1J      -0.660000
     38 C23        -21.9680    10.6330    -2.1340 ca         1 A1J       0.341300
     39 N4         -21.5990    11.8870    -2.4080 nb         1 A1J      -0.658000
     40 C25        -21.9920    11.5070    -4.7280 ca         1 A1J      -0.154000
     41 C27        -22.3840     9.7330    -3.1360 ca         1 A1J      -0.081300
     42 C29        -21.8630     7.1790    -3.0430 cx         1 A1J      -0.121900
     43 C30        -23.1120     7.3100    -3.8620 cx         1 A1J      -0.121900
     44 H6         -17.0710     6.0910    -1.1750 h1         1 A1J       0.058700
     45 H7         -19.3630     6.7200    -1.6970 h1         1 A1J       0.059700
     46 H8         -18.9220     4.7210    -0.2240 h1         1 A1J       0.036200
     47 H9         -19.3240     5.7370     1.1770 h1         1 A1J       0.036200
     48 H15        -19.7220     9.0780    -1.7950 h2         1 A1J       0.067700
     49 H21        -21.8580    12.4270     1.1150 hc         1 A1J       0.073200
     50 H22        -22.6010    12.8520    -0.4150 hc         1 A1J       0.073200
     51 H23        -24.0290    12.5980     2.2930 hc         1 A1J       0.068200
     52 H24        -23.7510    14.0700     1.3740 hc         1 A1J       0.068200
     53 H28        -22.6950     9.5610    -5.2570 ha         1 A1J       0.121000
     54 H29        -23.4090     8.2510    -1.9180 hc         1 A1J       0.089700
     55 H1         -16.9170    12.4550    -1.8060 h1         1 A1J       0.041367
     56 H2         -17.8040    12.1110    -0.3020 h1         1 A1J       0.041367
     57 H3         -16.1390    11.5030    -0.5180 h1         1 A1J       0.041367
     58 H4         -17.4880     9.6500     0.2000 h1         1 A1J       0.078700
     59 H5         -17.4850     8.1130    -2.4300 h1         1 A1J       0.106700
     60 H10        -21.2210     4.7160     0.4600 ho         1 A1J       0.510000
     61 H11        -16.6450     6.1580     0.9350 ho         1 A1J       0.512000
     62 H12        -12.8460     8.9000     1.4460 ha         1 A1J       0.148500
     63 H13        -11.3030     9.0400    -2.5870 ha         1 A1J       0.148500
     64 H14        -15.0880     8.7590     0.5120 h4         1 A1J       0.179000
     65 H16        -22.0680     9.1460    -0.5990 h1         1 A1J       0.104700
     66 H17        -24.3490    11.1260    -1.4760 hc         1 A1J       0.073200
     67 H18        -24.5880     9.6140    -0.6120 hc         1 A1J       0.073200
     68 H19        -26.4720    11.2430    -0.2570 hc         1 A1J       0.068200
     69 H20        -25.6800    10.8210     1.2610 hc         1 A1J       0.068200
     70 H25        -23.4250    10.5510     2.1340 ho         1 A1J       0.445000
     71 H27        -21.9890    11.8860    -5.7410 ha         1 A1J       0.127000
     72 H30        -20.9250     7.4120    -3.5300 hc         1 A1J       0.076700
     73 H31        -21.8050     6.4170    -2.2790 hc         1 A1J       0.076700
     74 H32        -23.0080     7.5720    -4.9050 hc         1 A1J       0.076700
     75 H33        -23.9320     6.6360    -3.6520 hc         1 A1J       0.076700
     76 F4         -26.2740    13.3350     1.3040 f          1 A1J      -0.125000
     77 H26        -21.3100    13.3460    -3.8330 h4         1 A1J       0.025100
     78 C1         -17.0850    11.7160    -1.0240 c3         1 A1J       0.146900
@<TRIPOS>BOND
     1     1    20 1   
     2     1    24 1   
     3     1    31 1   
     4     2     6 1   
     5     2    24 2   
     6     3     4 1   
     7     3    20 1   
     8     3    23 1   
     9     3    44 1   
    10     4     5 1   
    11     4    22 1   
    12     4    45 1   
    13     5    21 1   
    14     5    46 1   
    15     5    47 1   
    16     6     7 1   
    17     6    31 2   
    18     7    25 ar  
    19     7    27 ar  
    20     8     9 ar  
    21     8    25 ar  
    22     8    26 1   
    23     9    28 ar  
    24     9    30 1   
    25    10    19 1   
    26    10    22 1   
    27    10    32 1   
    28    10    48 1   
    29    11    12 1   
    30    11    33 1   
    31    11    34 1   
    32    11    37 1   
    33    12    13 1   
    34    12    49 1   
    35    12    50 1   
    36    13    14 1   
    37    13    51 1   
    38    13    52 1   
    39    14    35 1   
    40    14    36 1   
    41    14    76 1   
    42    15    39 ar  
    43    15    40 ar  
    44    15    77 1   
    45    16    40 ar  
    46    16    41 ar  
    47    16    53 1   
    48    17    41 1   
    49    17    42 1   
    50    17    43 1   
    51    17    54 1   
    52    18    19 1   
    53    18    78 1   
    54    19    20 1   
    55    19    58 1   
    56    20    59 1   
    57    21    60 1   
    58    23    61 1   
    59    25    62 1   
    60    27    28 ar  
    61    27    63 1   
    62    28    29 1   
    63    31    64 1   
    64    32    33 1   
    65    33    38 1   
    66    33    65 1   
    67    34    35 1   
    68    34    66 1   
    69    34    67 1   
    70    35    68 1   
    71    35    69 1   
    72    37    70 1   
    73    38    39 ar  
    74    38    41 ar  
    75    40    71 1   
    76    42    43 1   
    77    42    72 1   
    78    42    73 1   
    79    43    74 1   
    80    43    75 1   
    81    55    78 1   
    82    56    78 1   
    83    57    78 1   
@<TRIPOS>SUBSTRUCTURE
     1 A1J         1 TEMP              0 ****  ****    0 ROOT
