@<TRIPOS>MOLECULE
A1J
   71    75     1     0     0
SMALL
abcg2


@<TRIPOS>ATOM
      1 C4         -21.9430    10.6910    -5.1960 ca         1 A1J      -0.149000
      2 C5         -21.6420    11.6570    -4.2450 ca         1 A1J       0.338900
      3 C7         -22.0260    10.1960    -2.5060 ca         1 A1J       0.327300
      4 C8         -22.0460     9.9780    -1.0090 c3         1 A1J       0.046000
      5 C10        -22.8260    12.2670    -0.1060 c6         1 A1J      -0.101900
      6 C13        -25.6210    11.3170    -0.2380 c6         1 A1J      -0.122900
      7 C20        -17.9660     9.3520    -1.1790 c6         1 A1J       0.151300
      8 C21        -17.2110     8.2090    -1.8530 c6         1 A1J       0.065300
      9 C26        -12.3770     9.1670    -0.9500 ca         1 A1J      -0.057500
     10 C28        -10.9790     9.7000     0.9260 ca         1 A1J       0.157500
     11 C2         -22.3460     9.1470    -3.3860 ca         1 A1J      -0.113300
     12 C3         -22.2940     9.4270    -4.7510 ca         1 A1J      -0.080000
     13 N6         -21.6760    11.4120    -2.9380 nb         1 A1J      -0.663000
     14 C9         -23.1290    10.7690    -0.2330 c6         1 A1J       0.208000
     15 C11        -23.9620    13.0500     0.5610 c6         1 A1J      -0.122900
     16 C12        -24.4860    10.5620    -0.9320 c6         1 A1J      -0.101900
     17 C14        -25.2850    12.7830    -0.1150 c6         1 A1J       0.167000
     18 F15        -25.2750    13.3570    -1.3830 f          1 A1J      -0.124000
     19 F16        -26.2980    13.4450     0.5600 f          1 A1J      -0.124000
     20 O17        -23.1580    10.1400     1.0610 oh         1 A1J      -0.660000
     21 S18        -20.3770    10.2690    -0.2700 ss         1 A1J      -0.355000
     22 C19        -19.4560     8.9810    -1.1390 c6         1 A1J       0.249300
     23 N22        -15.7790     8.4680    -1.9040 na         1 A1J       0.126800
     24 N23        -15.1180     8.3190    -3.0660 nc         1 A1J      -0.191800
     25 N24        -13.8600     8.5560    -2.8370 nd         1 A1J      -0.346000
     26 C25        -13.6890     8.8630    -1.5180 cd         1 A1J       0.236500
     27 C27        -12.2320     9.4300     0.4160 ca         1 A1J      -0.131000
     28 F29        -10.8210     9.9530     2.2380 f          1 A1J      -0.158000
     29 C30        -11.2500     9.1850    -1.7780 ca         1 A1J      -0.131000
     30 C31        -10.0120     9.4560    -1.2360 ca         1 A1J       0.157500
     31 F32         -8.9180     9.4720    -2.0180 f          1 A1J      -0.158000
     32 C33         -9.8530     9.7150     0.1170 ca         1 A1J       0.089000
     33 F34         -8.6410     9.9700     0.6300 f          1 A1J      -0.144000
     34 C35        -14.9300     8.8080    -0.9140 cc         1 A1J      -0.169000
     35 O36        -17.7400    10.5140    -1.9590 oh         1 A1J      -0.713000
     36 O37        -19.6550     7.7380    -0.4890 os         1 A1J      -0.412000
     37 C38        -19.0290     6.6550    -1.1860 c6         1 A1J       0.157300
     38 C39        -19.4450     5.3640    -0.5200 c3         1 A1J       0.171600
     39 O40        -20.8200     5.1270    -0.8200 oh         1 A1J      -0.726000
     40 C41        -17.5150     6.8470    -1.2050 c6         1 A1J       0.133300
     41 O42        -17.0110     6.7730     0.1240 oh         1 A1J      -0.707000
     42 H4         -21.8970    10.9240    -6.2520 ha         1 A1J       0.129000
     43 H5         -21.3580    12.6610    -4.5430 h4         1 A1J       0.027100
     44 H8         -22.2650     8.9340    -0.8040 h1         1 A1J       0.103700
     45 H10A       -21.9110    12.4080     0.4700 hc         1 A1J       0.072700
     46 H10B       -22.6420    12.6610    -1.1030 hc         1 A1J       0.072700
     47 H13A       -26.5530    11.2120    -0.7950 hc         1 A1J       0.069450
     48 H13B       -25.7890    10.9290     0.7680 hc         1 A1J       0.069450
     49 H20        -17.6080     9.4890    -0.1530 h1         1 A1J       0.071700
     50 H21        -17.5270     8.1650    -2.8960 h1         1 A1J       0.106700
     51 H1A        -21.9560     7.3240    -2.2910 hc         1 A1J       0.054367
     52 H1B        -23.6520     7.7840    -2.3340 hc         1 A1J       0.054367
     53 H1C        -22.8850     7.1140    -3.7750 hc         1 A1J       0.054367
     54 H3         -22.5280     8.6440    -5.4620 ha         1 A1J       0.122000
     55 H11A       -24.0730    12.7790     1.6130 hc         1 A1J       0.069450
     56 H11B       -23.7560    14.1210     0.5270 hc         1 A1J       0.069450
     57 H12A       -24.4130    10.9020    -1.9650 hc         1 A1J       0.072700
     58 H12B       -24.7150     9.4960    -0.9510 hc         1 A1J       0.072700
     59 H17        -23.5570    10.7350     1.7050 ho         1 A1J       0.447000
     60 H19        -19.8200     8.9270    -2.1720 h2         1 A1J       0.066700
     61 H27        -13.0760     9.4250     1.0910 ha         1 A1J       0.148500
     62 H30        -11.3320     8.9860    -2.8370 ha         1 A1J       0.148500
     63 H35        -15.2540     8.9770     0.0960 h4         1 A1J       0.177000
     64 H36        -18.2890    11.2260    -1.6010 ho         1 A1J       0.532000
     65 H38        -19.3820     6.6450    -2.2250 h1         1 A1J       0.057700
     66 H39A       -18.8180     4.5530    -0.9070 h1         1 A1J       0.043200
     67 H39B       -19.2870     5.4410     0.5580 h1         1 A1J       0.043200
     68 H40        -21.1110     4.3580    -0.3160 ho         1 A1J       0.511000
     69 H41        -17.0690     6.0660    -1.8250 h1         1 A1J       0.060700
     70 H42        -16.1310     6.3800     0.1040 ho         1 A1J       0.511000
     71 C1         -22.7300     7.7690    -2.9180 c3         1 A1J      -0.055800
@<TRIPOS>BOND
     1     1     2 ar  
     2     1    12 ar  
     3     1    42 1   
     4     2    13 ar  
     5     2    43 1   
     6     3     4 1   
     7     3    11 ar  
     8     3    13 ar  
     9     4    14 1   
    10     4    21 1   
    11     4    44 1   
    12     5    14 1   
    13     5    15 1   
    14     5    45 1   
    15     5    46 1   
    16     6    16 1   
    17     6    17 1   
    18     6    47 1   
    19     6    48 1   
    20     7     8 1   
    21     7    22 1   
    22     7    35 1   
    23     7    49 1   
    24     8    23 1   
    25     8    40 1   
    26     8    50 1   
    27     9    26 1   
    28     9    27 ar  
    29     9    29 ar  
    30    10    27 ar  
    31    10    28 1   
    32    10    32 ar  
    33    11    12 ar  
    34    11    71 1   
    35    12    54 1   
    36    14    16 1   
    37    14    20 1   
    38    15    17 1   
    39    15    55 1   
    40    15    56 1   
    41    16    57 1   
    42    16    58 1   
    43    17    18 1   
    44    17    19 1   
    45    20    59 1   
    46    21    22 1   
    47    22    36 1   
    48    22    60 1   
    49    23    24 1   
    50    23    34 1   
    51    24    25 2   
    52    25    26 1   
    53    26    34 2   
    54    27    61 1   
    55    29    30 ar  
    56    29    62 1   
    57    30    31 1   
    58    30    32 ar  
    59    32    33 1   
    60    34    63 1   
    61    35    64 1   
    62    36    37 1   
    63    37    38 1   
    64    37    40 1   
    65    37    65 1   
    66    38    39 1   
    67    38    66 1   
    68    38    67 1   
    69    39    68 1   
    70    40    41 1   
    71    40    69 1   
    72    41    70 1   
    73    51    71 1   
    74    52    71 1   
    75    53    71 1   
@<TRIPOS>SUBSTRUCTURE
     1 A1J         1 TEMP              0 ****  ****    0 ROOT
