@<TRIPOS>MOLECULE
A1J
   78    82     1     0     0
SMALL
abcg2


@<TRIPOS>ATOM
      1 N1         -23.0940    10.3220    -3.2130 n          1 A1J      -0.420300
      2 N3         -16.1990     8.2850    -2.9340 nc         1 A1J      -0.186800
      3 C4         -23.9400    11.0570     0.1050 c6         1 A1J       0.210000
      4 C5         -23.6390    12.4970     0.5400 c6         1 A1J      -0.106900
      5 C6         -24.8160    13.1630     1.2620 c6         1 A1J      -0.121900
      6 C7         -25.2480    11.0080    -0.7090 c6         1 A1J      -0.106900
      7 C8         -26.4230    11.6370     0.0410 c6         1 A1J      -0.121900
      8 C10        -20.3330     9.1600    -0.7320 c6         1 A1J       0.268300
      9 C13        -14.6180     8.7700    -1.5210 cd         1 A1J       0.236500
     10 C15        -12.9660     9.1540     0.2940 ca         1 A1J      -0.131500
     11 C17        -12.2180     9.1490    -2.0040 ca         1 A1J      -0.131500
     12 C20        -15.7990     8.7420    -0.8050 cc         1 A1J      -0.180000
     13 C22        -19.9960     6.8090    -0.6420 c6         1 A1J       0.156300
     14 C24        -18.4800     6.9370    -0.7710 c6         1 A1J       0.133300
     15 C26        -23.4530     6.8070    -2.6240 ca         1 A1J       0.365900
     16 C28        -25.4680     7.5360    -3.6720 ca         1 A1J      -0.058000
     17 C1         -23.0880    11.0130    -4.5090 c3         1 A1J       0.092300
     18 C2         -22.6940    11.0480    -2.1280 c          1 A1J       0.610100
     19 C3         -22.8080    10.4190    -0.7400 c3         1 A1J      -0.000700
     20 C9         -26.0910    13.0470     0.4600 c6         1 A1J       0.167000
     21 F1         -25.9940    13.8500    -0.6730 f          1 A1J      -0.123500
     22 F2         -27.1470    13.5850     1.1770 f          1 A1J      -0.123500
     23 S1         -21.1850    10.5170     0.1110 ss         1 A1J      -0.316000
     24 C11        -18.8340     9.4600    -0.8880 c6         1 A1J       0.151300
     25 C12        -18.1760     8.2350    -1.5330 c6         1 A1J       0.050300
     26 N2         -16.7450     8.4370    -1.7150 na         1 A1J       0.125800
     27 N4         -14.9190     8.4850    -2.8210 nd         1 A1J      -0.347000
     28 C14        -13.2520     9.0310    -1.0700 ca         1 A1J      -0.058500
     29 C16        -11.6680     9.3870     0.6980 ca         1 A1J       0.157500
     30 F3         -11.3760     9.5020     2.0060 f          1 A1J      -0.157500
     31 C18        -10.9310     9.3820    -1.5660 ca         1 A1J       0.157500
     32 F4          -9.9240     9.5010    -2.4500 f          1 A1J      -0.157500
     33 C19        -10.6330     9.5030    -0.2170 ca         1 A1J       0.089000
     34 F5          -9.3750     9.7220     0.1910 f          1 A1J      -0.144000
     35 O2         -18.6380    10.5610    -1.7540 os         1 A1J      -0.448000
     36 O3         -20.5350     7.9650     0.0110 os         1 A1J      -0.414000
     37 C23        -20.4010     5.5870     0.1510 c3         1 A1J       0.172600
     38 O4         -21.8010     5.3720    -0.0220 oh         1 A1J      -0.727000
     39 O5         -17.8900     6.9460     0.5270 oh         1 A1J      -0.710000
     40 O6         -22.2820    12.1950    -2.2710 o          1 A1J      -0.570100
     41 C25        -23.6640     9.0170    -3.1740 ca         1 A1J       0.462900
     42 N5         -22.9280     8.0370    -2.6620 nb         1 A1J      -0.701000
     43 C27        -24.7130     6.5060    -3.1220 ca         1 A1J      -0.170000
     44 C29        -24.9410     8.8180    -3.6940 ca         1 A1J      -0.176000
     45 H5         -22.7660    12.5070     1.1950 hc         1 A1J       0.073450
     46 H6         -23.3820    13.0730    -0.3470 hc         1 A1J       0.073450
     47 H7         -25.0020    12.7050     2.2360 hc         1 A1J       0.069200
     48 H8         -24.6040    14.2180     1.4400 hc         1 A1J       0.069200
     49 H10        -25.1110    11.5360    -1.6540 hc         1 A1J       0.073450
     50 H9         -25.4780     9.9690    -0.9440 hc         1 A1J       0.073450
     51 H11        -27.3170    11.6530    -0.5840 hc         1 A1J       0.069200
     52 H12        -26.6560    11.0690     0.9440 hc         1 A1J       0.069200
     53 H14        -20.7710     9.0500    -1.7280 h2         1 A1J       0.088700
     54 H18        -12.4100     9.0610    -3.0630 ha         1 A1J       0.148500
     55 H19        -16.0250     8.9130     0.2310 h4         1 A1J       0.176000
     56 H20        -17.9820    12.4700    -1.9270 h1         1 A1J       0.041367
     57 H21        -18.7410    12.1090    -0.3590 h1         1 A1J       0.041367
     58 H22        -17.0990    11.5070    -0.7180 h1         1 A1J       0.041367
     59 H23        -20.4190     6.7370    -1.6510 h1         1 A1J       0.065700
     60 H27        -18.1030     6.0940    -1.3540 h1         1 A1J       0.057700
     61 H29        -22.8360     6.0420    -2.1700 h4         1 A1J       0.042100
     62 H31        -26.4590     7.3490    -4.0650 ha         1 A1J       0.125000
     63 H1         -23.2500    10.2800    -5.2930 h1         1 A1J       0.051367
     64 H2         -23.8690    11.7740    -4.5520 h1         1 A1J       0.051367
     65 H3         -22.1230    11.4940    -4.6540 h1         1 A1J       0.051367
     66 H4         -23.0500     9.3650    -0.8060 h1         1 A1J       0.117700
     67 H15        -18.3960     9.6480     0.0960 h1         1 A1J       0.073700
     68 H16        -18.5750     8.1370    -2.5430 h1         1 A1J       0.110700
     69 H24        -19.8280     4.7290    -0.2170 h1         1 A1J       0.040200
     70 H25        -20.1570     5.7400     1.2040 h1         1 A1J       0.040200
     71 H26        -22.0810     4.6930     0.6020 ho         1 A1J       0.509000
     72 H28        -17.0580     6.4610     0.4950 ho         1 A1J       0.508000
     73 H30        -25.0900     5.4940    -3.0780 ha         1 A1J       0.131000
     74 H32        -25.5060     9.6500    -4.0900 ha         1 A1J       0.133000
     75 O1         -24.0560    10.1850     1.2400 oh         1 A1J      -0.654000
     76 H17        -13.7350     9.0610     1.0480 ha         1 A1J       0.148500
     77 C21        -18.0840    11.7230    -1.1420 c3         1 A1J       0.147900
     78 H13        -24.4910    10.6470     1.9650 ho         1 A1J       0.446000
@<TRIPOS>BOND
     1     1    17 1   
     2     1    18 1   
     3     1    41 1   
     4     2    26 1   
     5     2    27 2   
     6     3     4 1   
     7     3     6 1   
     8     3    19 1   
     9     3    75 1   
    10     4     5 1   
    11     4    45 1   
    12     4    46 1   
    13     5    20 1   
    14     5    47 1   
    15     5    48 1   
    16     6     7 1   
    17     6    49 1   
    18     6    50 1   
    19     7    20 1   
    20     7    51 1   
    21     7    52 1   
    22     8    23 1   
    23     8    24 1   
    24     8    36 1   
    25     8    53 1   
    26     9    12 2   
    27     9    27 1   
    28     9    28 1   
    29    10    28 ar  
    30    10    29 ar  
    31    10    76 1   
    32    11    28 ar  
    33    11    31 ar  
    34    11    54 1   
    35    12    26 1   
    36    12    55 1   
    37    13    14 1   
    38    13    36 1   
    39    13    37 1   
    40    13    59 1   
    41    14    25 1   
    42    14    39 1   
    43    14    60 1   
    44    15    42 ar  
    45    15    43 ar  
    46    15    61 1   
    47    16    43 ar  
    48    16    44 ar  
    49    16    62 1   
    50    17    63 1   
    51    17    64 1   
    52    17    65 1   
    53    18    19 1   
    54    18    40 2   
    55    19    23 1   
    56    19    66 1   
    57    20    21 1   
    58    20    22 1   
    59    24    25 1   
    60    24    35 1   
    61    24    67 1   
    62    25    26 1   
    63    25    68 1   
    64    29    30 1   
    65    29    33 ar  
    66    31    32 1   
    67    31    33 ar  
    68    33    34 1   
    69    35    77 1   
    70    37    38 1   
    71    37    69 1   
    72    37    70 1   
    73    38    71 1   
    74    39    72 1   
    75    41    42 ar  
    76    41    44 ar  
    77    43    73 1   
    78    44    74 1   
    79    56    77 1   
    80    57    77 1   
    81    58    77 1   
    82    75    78 1   
@<TRIPOS>SUBSTRUCTURE
     1 A1J         1 TEMP              0 ****  ****    0 ROOT
