@<TRIPOS>MOLECULE
A1J
   65    68     1     0     0
SMALL
abcg2


@<TRIPOS>ATOM
      1 N1          49.4580    -8.3300    -3.0970 nc         1 A1J      -0.192800
      2 C4          52.3050    -9.5480    -1.3090 c6         1 A1J       0.149300
      3 C5          48.0460    -8.9440    -1.5600 cd         1 A1J       0.235500
      4 C6          49.2980    -8.9540    -0.9780 cc         1 A1J      -0.167000
      5 C7          46.7390    -9.2690    -0.9900 ca         1 A1J      -0.057500
      6 C8          46.6040    -9.5560     0.3720 ca         1 A1J      -0.131000
      7 C10         44.2270    -9.8640     0.0800 ca         1 A1J       0.089000
      8 C15         56.2420   -10.3750    -2.8350 ca         1 A1J      -0.102300
      9 C17         56.5510    -9.3690    -5.0050 ca         1 A1J      -0.117000
     10 C20         55.6690   -11.4800    -3.4690 ca         1 A1J      -0.095000
     11 C22         57.4090   -11.2850    -0.7100 c3         1 A1J       0.196000
     12 C24         57.0720   -12.7700    -0.8250 c3         1 A1J      -0.118600
     13 C11         44.3760    -9.5800    -1.2690 ca         1 A1J       0.156500
     14 F1          43.0220   -10.1440     0.5940 f          1 A1J      -0.144000
     15 C9          45.3570    -9.8490     0.8840 ca         1 A1J       0.156500
     16 F           45.2090   -10.1240     2.1930 f          1 A1J      -0.158500
     17 C12         45.6080    -9.2850    -1.8120 ca         1 A1J      -0.131000
     18 N2          48.2000    -8.5560    -2.8590 nd         1 A1J      -0.347000
     19 N           50.1360    -8.5700    -1.9610 na         1 A1J       0.126800
     20 C3          51.5770    -8.3560    -1.9240 c6         1 A1J       0.065300
     21 C2          51.9340    -7.0340    -1.2220 c6         1 A1J       0.133300
     22 O1          51.4490    -7.0050     0.1160 oh         1 A1J      -0.707000
     23 C1          53.4550    -6.8910    -1.2170 c6         1 A1J       0.155300
     24 O           54.0550    -8.0230    -0.5780 os         1 A1J      -0.410000
     25 O2          52.0260   -10.6720    -2.1260 oh         1 A1J      -0.712000
     26 C           53.8060    -9.2260    -1.2850 c6         1 A1J       0.251300
     27 S           54.7110   -10.5820    -0.5090 ss         1 A1J      -0.381000
     28 C14         56.3570   -10.3300    -1.3290 c3         1 A1J       0.148600
     29 O4          57.4450   -10.9130     0.6820 oh         1 A1J      -0.655000
     30 C19         55.5560   -11.5470    -4.8500 ca         1 A1J      -0.114000
     31 C18         56.0060   -10.4850    -5.6260 ca         1 A1J      -0.097000
     32 C16         56.6740    -9.2870    -3.6150 ca         1 A1J      -0.063300
     33 H5          51.9630    -9.7110    -0.2820 h1         1 A1J       0.071700
     34 H7          49.6370    -9.2000     0.0110 h4         1 A1J       0.177000
     35 H8          47.4520    -9.5490     1.0440 ha         1 A1J       0.149000
     36 H14         56.8830    -8.5310    -5.6070 ha         1 A1J       0.114000
     37 H17         55.2820   -12.2920    -2.8700 ha         1 A1J       0.119000
     38 H18         58.1670    -8.2160    -2.4650 hc         1 A1J       0.051033
     39 H19         57.4530    -7.3000    -3.7910 hc         1 A1J       0.051033
     40 H20         56.5400    -7.5700    -2.3070 hc         1 A1J       0.051033
     41 H25         57.8110   -13.3440    -0.2620 hc         1 A1J       0.047033
     42 H26         56.0840   -12.9890    -0.4180 hc         1 A1J       0.047033
     43 H27         57.1060   -13.1070    -1.8600 hc         1 A1J       0.047033
     44 H9          45.6840    -9.0700    -2.8690 ha         1 A1J       0.149000
     45 H4          51.8790    -8.2780    -2.9690 h1         1 A1J       0.107700
     46 H2          51.5050    -6.2120    -1.8000 h1         1 A1J       0.060700
     47 H3          50.5870    -6.5730     0.1270 ho         1 A1J       0.510000
     48 H1          53.7940    -6.8460    -2.2600 h1         1 A1J       0.059700
     49 H12         55.6350    -4.7340    -0.2420 ho         1 A1J       0.510000
     50 H6          52.5640   -11.4120    -1.8070 ho         1 A1J       0.527000
     51 H           54.1520    -9.1310    -2.3200 h2         1 A1J       0.072700
     52 H13         56.6640    -9.3350    -1.0210 h1         1 A1J       0.100700
     53 H22         59.5300   -11.6230    -0.8420 hc         1 A1J       0.047033
     54 H23         58.7840   -11.2430    -2.3990 hc         1 A1J       0.047033
     55 H24         59.0500    -9.9580    -1.2050 hc         1 A1J       0.047033
     56 H21         58.0990   -11.4730     1.1210 ho         1 A1J       0.442000
     57 H16         55.1100   -12.4180    -5.3140 ha         1 A1J       0.118000
     58 H15         55.9210   -10.5180    -6.7050 ha         1 A1J       0.117000
     59 C13         53.9220    -5.6430    -0.5030 c3         1 A1J       0.171600
     60 F2          43.2790    -9.5980    -2.0470 f          1 A1J      -0.158500
     61 O3          55.3010    -5.4390    -0.8090 oh         1 A1J      -0.725000
     62 C23         58.7770   -11.0050    -1.3350 c3         1 A1J      -0.118600
     63 C21         57.2400    -8.0280    -3.0100 c3         1 A1J      -0.060800
     64 H10         53.3170    -4.7970    -0.8490 h1         1 A1J       0.042700
     65 H11         53.7720    -5.7600     0.5720 h1         1 A1J       0.042700
@<TRIPOS>BOND
     1     1    18 2   
     2     1    19 1   
     3     2    20 1   
     4     2    25 1   
     5     2    26 1   
     6     2    33 1   
     7     3     4 2   
     8     3     5 1   
     9     3    18 1   
    10     4    19 1   
    11     4    34 1   
    12     5     6 ar  
    13     5    17 ar  
    14     6    15 ar  
    15     6    35 1   
    16     7    13 ar  
    17     7    14 1   
    18     7    15 ar  
    19     8    10 ar  
    20     8    28 1   
    21     8    32 ar  
    22     9    31 ar  
    23     9    32 ar  
    24     9    36 1   
    25    10    30 ar  
    26    10    37 1   
    27    11    12 1   
    28    11    28 1   
    29    11    29 1   
    30    11    62 1   
    31    12    41 1   
    32    12    42 1   
    33    12    43 1   
    34    13    17 ar  
    35    13    60 1   
    36    15    16 1   
    37    17    44 1   
    38    19    20 1   
    39    20    21 1   
    40    20    45 1   
    41    21    22 1   
    42    21    23 1   
    43    21    46 1   
    44    22    47 1   
    45    23    24 1   
    46    23    48 1   
    47    23    59 1   
    48    24    26 1   
    49    25    50 1   
    50    26    27 1   
    51    26    51 1   
    52    27    28 1   
    53    28    52 1   
    54    29    56 1   
    55    30    31 ar  
    56    30    57 1   
    57    31    58 1   
    58    32    63 1   
    59    38    63 1   
    60    39    63 1   
    61    40    63 1   
    62    49    61 1   
    63    53    62 1   
    64    54    62 1   
    65    55    62 1   
    66    59    61 1   
    67    59    64 1   
    68    59    65 1   
@<TRIPOS>SUBSTRUCTURE
     1 A1J         1 TEMP              0 ****  ****    0 ROOT
