@<TRIPOS>MOLECULE
A1J
   39    41     1     0     0
SMALL
abcg2


@<TRIPOS>ATOM
      1 C1          40.0900   -29.2300    46.2850 c3         1 A1J      -0.042800
      2 C2          39.5030   -28.3010    45.2660 ca         1 A1J      -0.095300
      3 C3          40.2370   -27.2400    44.7750 ca         1 A1J      -0.073000
      4 C7          38.1960   -28.4190    44.7470 ca         1 A1J      -0.019200
      5 C10         36.3680   -27.9810    43.5480 cc         1 A1J       0.423500
      6 C12         35.5470   -27.1310    41.4270 c          1 A1J       0.606300
      7 C14         34.3540   -26.6180    40.7050 ce         1 A1J      -0.271200
      8 C15         33.0890   -26.8870    41.0060 c2         1 A1J      -0.271000
      9 C19         38.7820   -32.9630    43.5170 ca         1 A1J      -0.150500
     10 C20         39.1640   -33.9280    44.4270 ca         1 A1J       0.174000
     11 C21         38.9190   -33.7940    45.7800 ca         1 A1J      -0.150500
     12 C22         38.2760   -32.6500    46.2250 ca         1 A1J      -0.072000
     13 C4          39.7360   -26.3220    43.8300 ca         1 A1J      -0.148000
     14 C5          38.4660   -26.4490    43.3270 ca         1 A1J      -0.018000
     15 C6          37.6900   -27.5200    43.7890 ca         1 A1J      -0.217900
     16 N8          37.1840   -29.2950    45.0120 na         1 A1J       0.073600
     17 N9          36.0990   -29.0310    44.2750 nd         1 A1J      -0.557100
     18 N11         35.3780   -27.4190    42.7430 ns         1 A1J      -0.410400
     19 O13         36.6110   -27.2730    40.8500 o          1 A1J      -0.573100
     20 C17         37.8740   -31.6560    45.3370 ca         1 A1J      -0.130300
     21 C18         38.1320   -31.8260    43.9810 ca         1 A1J      -0.072000
     22 H1B         39.5610   -29.1790    47.2380 hc         1 A1J       0.043367
     23 H1A         40.0660   -30.2690    45.9550 hc         1 A1J       0.043367
     24 H1C         41.1300   -28.9700    46.4760 hc         1 A1J       0.043367
     25 H3          41.2480   -27.1050    45.1400 ha         1 A1J       0.110000
     26 H14         34.5890   -26.0340    39.8230 ha         1 A1J       0.203000
     27 H15A        32.2840   -26.5070    40.3920 ha         1 A1J       0.169500
     28 H15B        32.7920   -27.5030    41.8470 ha         1 A1J       0.169500
     29 H16A        37.5670   -30.1770    46.8550 h1         1 A1J       0.073200
     30 H16B        36.1050   -30.6760    46.0460 h1         1 A1J       0.073200
     31 H19         38.9870   -33.0890    42.4620 ha         1 A1J       0.134500
     32 H21         39.2310   -34.5630    46.4750 ha         1 A1J       0.134500
     33 H22         38.0920   -32.5300    47.2860 ha         1 A1J       0.124500
     34 H4          40.3710   -25.5100    43.5030 ha         1 A1J       0.116000
     35 H5          38.0780   -25.7490    42.6010 ha         1 A1J       0.129000
     36 H11         34.4660   -27.3020    43.1580 hn         1 A1J       0.332500
     37 H18         37.8330   -31.0720    43.2640 ha         1 A1J       0.124500
     38 C16         37.1580   -30.4450    45.8820 c3         1 A1J       0.148900
     39 F23         39.7960   -35.0280    43.9880 f          1 A1J      -0.177000
@<TRIPOS>BOND
     1     1     2 1   
     2     1    22 1   
     3     1    23 1   
     4     1    24 1   
     5     2     3 ar  
     6     2     4 ar  
     7     3    13 ar  
     8     3    25 1   
     9     4    15 ar  
    10     4    16 1   
    11     5    15 1   
    12     5    17 2   
    13     5    18 1   
    14     6     7 1   
    15     6    18 1   
    16     6    19 2   
    17     7     8 2   
    18     7    26 1   
    19     8    27 1   
    20     8    28 1   
    21     9    10 ar  
    22     9    21 ar  
    23     9    31 1   
    24    10    11 ar  
    25    10    39 1   
    26    11    12 ar  
    27    11    32 1   
    28    12    20 ar  
    29    12    33 1   
    30    13    14 ar  
    31    13    34 1   
    32    14    15 ar  
    33    14    35 1   
    34    16    17 1   
    35    16    38 1   
    36    18    36 1   
    37    20    21 ar  
    38    20    38 1   
    39    21    37 1   
    40    29    38 1   
    41    30    38 1   
@<TRIPOS>SUBSTRUCTURE
     1 A1J         1 TEMP              0 ****  ****    0 ROOT
