@<TRIPOS>MOLECULE
A1J
   49    52     1     0     0
SMALL
abcg2


@<TRIPOS>ATOM
      1 C01         27.1650   -18.4500   -11.7160 cy         1 A1J      -0.138000
      2 C02         25.6320   -18.5670   -11.8760 cy         1 A1J      -0.081900
      3 C03         25.6620   -19.7600   -10.9040 cy         1 A1J      -0.099400
      4 C04         27.1610   -19.9140   -11.2160 cy         1 A1J      -0.081900
      5 C05         28.0230   -18.0810   -12.8850 ca         1 A1J       0.191300
      6 C06         29.7220   -16.8290   -13.7110 ca         1 A1J       0.419900
      7 C07         28.6920   -18.2590   -15.1550 ca         1 A1J       0.412900
      8 C08         27.8350   -18.6700   -14.1190 ca         1 A1J      -0.349000
      9 C09         29.2020   -17.9370   -17.5120 c6         1 A1J       0.239800
     10 C10         28.6810   -18.3280   -18.8870 c6         1 A1J      -0.093400
     11 C11         27.2020   -18.6910   -18.8080 c6         1 A1J      -0.027100
     12 C12         27.1050   -19.8980   -17.9300 ca         1 A1J      -0.116300
     13 C13         26.3920   -21.0390   -18.2740 ca         1 A1J      -0.091000
     14 C14         26.4170   -22.1690   -17.4680 ca         1 A1J      -0.143000
     15 C15         27.2020   -22.1700   -16.3220 ca         1 A1J      -0.098000
     16 C16         27.9430   -21.0490   -15.9790 ca         1 A1J      -0.139000
     17 C17         27.8730   -19.8960   -16.7600 ca         1 A1J       0.325000
     18 C18         30.7920   -15.0600   -12.3640 c3         1 A1J       0.247800
     19 C19         29.7920   -13.9160   -12.3830 c3         1 A1J      -0.245400
     20 C20         29.9410   -12.9630   -13.5870 c          1 A1J       0.715000
     21 N01         28.9690   -17.1660   -12.6640 nb         1 A1J      -0.264000
     22 N02         29.6200   -17.3350   -14.9450 nb         1 A1J      -0.318000
     23 N03         28.5890   -18.7310   -16.4390 nh         1 A1J      -0.819100
     24 N04         30.7020   -15.9170   -13.5270 nu         1 A1J      -0.879100
     25 O01         28.9440   -12.2700   -13.8690 o          1 A1J      -0.741000
     26 O02         31.0500   -12.9460   -14.1620 o          1 A1J      -0.741000
     27 H01         27.4030   -17.7770   -10.8900 hc         1 A1J       0.081700
     28 H02         25.0380   -17.6930   -11.6070 hc         1 A1J       0.049700
     29 H03         25.3510   -18.8820   -12.8820 hc         1 A1J       0.049700
     30 H04         25.4950   -19.4460    -9.8730 hc         1 A1J       0.041200
     31 H05         25.0100   -20.6060   -11.1200 hc         1 A1J       0.041200
     32 H06         27.3300   -20.6130   -12.0380 hc         1 A1J       0.049700
     33 H07         27.8400   -20.1630   -10.4000 hc         1 A1J       0.049700
     34 H08         27.0460   -19.3890   -14.2760 ha         1 A1J       0.125000
     35 H09         30.2900   -18.0290   -17.4760 h1         1 A1J       0.065700
     36 H10         28.9670   -16.8880   -17.3270 h1         1 A1J       0.065700
     37 H11         28.8560   -17.4920   -19.5660 hc         1 A1J       0.046200
     38 H12         29.2350   -19.1810   -19.2850 hc         1 A1J       0.046200
     39 H13         26.6360   -17.8510   -18.3900 hc         1 A1J       0.051700
     40 H14         26.7880   -18.8970   -19.7960 hc         1 A1J       0.051700
     41 H15         25.8090   -21.0370   -19.1880 ha         1 A1J       0.104000
     42 H16         25.8450   -23.0450   -17.7410 ha         1 A1J       0.104000
     43 H17         27.2540   -23.0530   -15.6980 ha         1 A1J       0.105000
     44 H18         28.5730   -21.0740   -15.1000 ha         1 A1J       0.128000
     45 H20         31.8080   -14.6680   -12.3340 h1         1 A1J       0.039200
     46 H21         30.6600   -15.6690   -11.4700 h1         1 A1J       0.039200
     47 H22         28.7730   -14.3110   -12.3440 hc         1 A1J       0.033700
     48 H23         29.9150   -13.3280   -11.4650 hc         1 A1J       0.033700
     49 H19         31.1090   -15.5500   -14.3720 hn         1 A1J       0.514000
@<TRIPOS>BOND
     1     1     2 1   
     2     1     4 1   
     3     1     5 1   
     4     1    27 1   
     5     2     3 1   
     6     2    28 1   
     7     2    29 1   
     8     3     4 1   
     9     3    30 1   
    10     3    31 1   
    11     4    32 1   
    12     4    33 1   
    13     5     8 ar  
    14     5    21 ar  
    15     6    21 ar  
    16     6    22 ar  
    17     6    24 1   
    18     7     8 ar  
    19     7    22 ar  
    20     7    23 1   
    21     8    34 1   
    22     9    10 1   
    23     9    23 1   
    24     9    35 1   
    25     9    36 1   
    26    10    11 1   
    27    10    37 1   
    28    10    38 1   
    29    11    12 1   
    30    11    39 1   
    31    11    40 1   
    32    12    13 ar  
    33    12    17 ar  
    34    13    14 ar  
    35    13    41 1   
    36    14    15 ar  
    37    14    42 1   
    38    15    16 ar  
    39    15    43 1   
    40    16    17 ar  
    41    16    44 1   
    42    17    23 1   
    43    18    19 1   
    44    18    24 1   
    45    18    45 1   
    46    18    46 1   
    47    19    20 1   
    48    19    47 1   
    49    19    48 1   
    50    20    25 1   
    51    20    26 1   
    52    24    49 1   
@<TRIPOS>SUBSTRUCTURE
     1 A1J         1 TEMP              0 ****  ****    0 ROOT
