@<TRIPOS>MOLECULE
A1J
   57    61     1     0     0
SMALL
abcg2


@<TRIPOS>ATOM
      1 O1          -3.5640    -3.2160    -0.6660 o          1 A1J      -0.593300
      2 C2          -3.2570    -2.0340    -0.5200 c2         1 A1J       0.595300
      3 N3          -2.0230    -1.5620    -0.3480 ns         1 A1J      -0.451900
      4 C4          -0.8370    -2.4140    -0.2890 c3         1 A1J       0.154300
      5 C5           0.2460    -1.7610     0.5260 ca         1 A1J      -0.128300
      6 C6           0.1140    -1.6820     1.9280 ca         1 A1J      -0.132000
      7 C7           1.0720    -1.0670     2.7130 ca         1 A1J      -0.058000
      8 C8           2.2020    -0.5080     2.0990 ca         1 A1J      -0.079800
      9 C9           3.3730     0.1730     2.5680 cc         1 A1J      -0.241200
     10 C10          4.1380     0.4770     1.4690 cd         1 A1J      -0.043300
     11 C11          5.4360     1.2020     1.3650 c3         1 A1J       0.208000
     12 N12          6.3580     0.5120     0.4640 n7         1 A1J      -0.878400
     13 C13          7.6240     1.2210     0.2850 c3         1 A1J       0.171800
     14 C14          8.5560     0.4510    -0.6240 cy         1 A1J      -0.089700
     15 C15          9.8910     1.1200    -1.0380 cy         1 A1J      -0.082400
     16 C16          9.6960     0.5420    -2.4630 cy         1 A1J      -0.092400
     17 C17          8.1990     0.3210    -2.1270 cy         1 A1J      -0.082400
     18 N18          3.4980     0.0190     0.3370 na         1 A1J      -0.210700
     19 C19          2.3200    -0.5940     0.6850 ca         1 A1J      -0.055200
     20 C20          1.3550    -1.2140    -0.1050 ca         1 A1J      -0.096000
     21 C21         -4.3450    -0.9760    -0.5260 ce         1 A1J       0.190400
     22 C22         -5.7300    -1.4630    -0.7420 c6         1 A1J      -0.184200
     23 C23         -6.7860    -0.4110    -0.7560 c          1 A1J       0.525800
     24 O24         -7.9500    -0.6040    -0.9250 o          1 A1J      -0.374000
     25 N25         -6.3150     0.9670    -0.5400 n          1 A1J       0.037200
     26 C26         -7.2470     1.9540    -0.5370 cc         1 A1J      -0.025000
     27 C27         -6.8820     3.2590    -0.3420 cd         1 A1J      -0.129000
     28 C28         -5.5350     3.5640    -0.1450 cd         1 A1J       0.032000
     29 C29         -4.5920     2.5510    -0.1500 cc         1 A1J      -0.106000
     30 C30         -4.9820     1.2350    -0.3490 cd         1 A1J       0.080000
     31 N31         -4.0250     0.2480    -0.3490 ne         1 A1J      -0.299600
     32 H3          -1.9100    -0.5620    -0.2610 hn         1 A1J       0.342500
     33 H4B         -1.1430    -3.3650     0.1490 h1         1 A1J       0.072700
     34 H4A         -0.4820    -2.6170    -1.3020 h1         1 A1J       0.072700
     35 H6          -0.7630    -2.1180     2.3930 ha         1 A1J       0.110000
     36 H7           0.9530    -1.0230     3.7890 ha         1 A1J       0.123000
     37 H9           3.6230     0.4120     3.5900 ha         1 A1J       0.211000
     38 H11B         5.2670     2.2040     0.9530 h1         1 A1J       0.052200
     39 H11A         5.8400     1.3420     2.3770 h1         1 A1J       0.052200
     40 H12A         6.5480    -0.4140     0.8370 hn         1 A1J       0.416000
     41 H13A         7.4040     2.1970    -0.1610 h1         1 A1J       0.036200
     42 H13B         8.1280     1.4180     1.2470 h1         1 A1J       0.036200
     43 H14          8.7490    -0.5380    -0.1970 hc         1 A1J       0.053700
     44 H15A         9.8060     2.2090    -1.0290 hc         1 A1J       0.050450
     45 H15B        10.7900     0.8330    -0.4910 hc         1 A1J       0.050450
     46 H16B         9.9320     1.1920    -3.3050 hc         1 A1J       0.052700
     47 H16A        10.2250    -0.4040    -2.5900 hc         1 A1J       0.052700
     48 H17B         7.7370    -0.6080    -2.4590 hc         1 A1J       0.050450
     49 H17A         7.5810     1.1600    -2.4550 hc         1 A1J       0.050450
     50 H18          3.8910     0.0680    -0.5890 hn         1 A1J       0.367000
     51 H20          1.4640    -1.2690    -1.1820 ha         1 A1J       0.116000
     52 H22         -5.7910    -2.0190    -1.6840 hc         1 A1J       0.163700
     53 H1          -5.9930    -2.1960     0.0290 hc         1 A1J       0.163700
     54 H26         -8.2630     1.6310    -0.6970 h4         1 A1J       0.200000
     55 H27         -7.6420     4.0260    -0.3440 ha         1 A1J       0.181000
     56 H28         -5.2250     4.5890     0.0110 ha         1 A1J       0.172000
     57 H29         -3.5400     2.7450    -0.0020 ha         1 A1J       0.188000
@<TRIPOS>BOND
     1     1     2 1   
     2     2     3 1   
     3     2    21 2   
     4     3     4 1   
     5     3    32 1   
     6     4     5 1   
     7     4    33 1   
     8     4    34 1   
     9     5     6 ar  
    10     5    20 ar  
    11     6     7 ar  
    12     6    35 1   
    13     7     8 ar  
    14     7    36 1   
    15     8     9 1   
    16     8    19 ar  
    17     9    10 2   
    18     9    37 1   
    19    10    11 1   
    20    10    18 1   
    21    11    12 1   
    22    11    38 1   
    23    11    39 1   
    24    12    13 1   
    25    12    40 1   
    26    13    14 1   
    27    13    41 1   
    28    13    42 1   
    29    14    15 1   
    30    14    17 1   
    31    14    43 1   
    32    15    16 1   
    33    15    44 1   
    34    15    45 1   
    35    16    17 1   
    36    16    46 1   
    37    16    47 1   
    38    17    48 1   
    39    17    49 1   
    40    18    19 1   
    41    18    50 1   
    42    19    20 ar  
    43    20    51 1   
    44    21    22 1   
    45    21    31 1   
    46    22    23 1   
    47    22    52 1   
    48    22    53 1   
    49    23    24 2   
    50    23    25 1   
    51    25    26 1   
    52    25    30 1   
    53    26    27 2   
    54    26    54 1   
    55    27    28 1   
    56    27    55 1   
    57    28    29 2   
    58    28    56 1   
    59    29    30 1   
    60    29    57 1   
    61    30    31 2   
@<TRIPOS>SUBSTRUCTURE
     1 A1J         1 TEMP              0 ****  ****    0 ROOT
