@<TRIPOS>MOLECULE
A1J
   82    85     1     0     0
SMALL
abcg2


@<TRIPOS>ATOM
      1 C01        -22.4460    29.4310    97.1260 c3         1 A1J      -0.078100
      2 C02        -21.6320    29.7040    95.8590 c3         1 A1J      -0.040700
      3 C03        -20.2960    30.4060    96.1420 c5         1 A1J      -0.055700
      4 C04        -19.5290    30.7560    94.8380 c5         1 A1J      -0.079400
      5 C05        -18.7200    32.0370    95.1210 c5         1 A1J      -0.071400
      6 C06        -18.8770    32.2330    96.6240 c5         1 A1J      -0.064700
      7 C07        -20.3060    31.7470    96.9190 c5         1 A1J      -0.036000
      8 C08        -20.4370    31.6540    98.4400 c6         1 A1J      -0.062400
      9 C09        -20.0860    32.9770    99.1280 c6         1 A1J      -0.067400
     10 C10        -18.7020    33.5140    98.7510 c6         1 A1J      -0.042700
     11 C11        -18.5290    33.5880    97.2210 c6         1 A1J      -0.044700
     12 C12        -17.1090    34.0090    96.8590 c6         1 A1J      -0.071400
     13 C13        -16.7220    35.3200    97.5300 c6         1 A1J      -0.066400
     14 C14        -16.9050    35.2770    99.0470 c6         1 A1J      -0.050700
     15 C15        -18.3390    34.8530    99.4500 c6         1 A1J      -0.022000
     16 C16        -18.3950    34.7790   100.9900 c6         1 A1J      -0.064400
     17 C17        -17.3040    33.9880   101.6930 c6         1 A1J       0.146300
     18 C18        -15.9300    34.4560   101.2160 c6         1 A1J       0.130300
     19 C19        -15.8280    34.4100    99.7040 c6         1 A1J      -0.067400
     20 C22        -19.3220    35.9650    99.0520 c3         1 A1J      -0.087100
     21 C23        -21.3730    32.6870    96.3470 c3         1 A1J      -0.078100
     22 C24        -21.4030    28.4150    95.0530 c3         1 A1J       0.137300
     23 C25        -22.6750    27.9580    94.3040 c3         1 A1J       0.142300
     24 C26        -22.8750    28.7740    93.0180 c3         1 A1J      -0.049700
     25 C27        -22.0540    28.2330    91.8480 c3         1 A1J      -0.075100
     26 C28        -24.3650    28.9880    92.6850 c3         1 A1J      -0.053700
     27 C29        -24.5480    29.9490    91.5130 c3         1 A1J      -0.084600
     28 C30        -25.1480    27.7010    92.4390 c3         1 A1J      -0.084600
     29 O20        -14.8990    33.6540   101.7640 oh         1 A1J      -0.664000
     30 O21        -17.4780    32.6030   101.4880 oh         1 A1J      -0.653000
     31 O31        -22.5960    26.5840    93.9740 oh         1 A1J      -0.662000
     32 O32        -20.9360    27.4240    95.9480 oh         1 A1J      -0.662000
     33 H011       -23.3010    28.7830    96.9290 hc         1 A1J       0.035367
     34 H012       -21.8440    28.9590    97.9020 hc         1 A1J       0.035367
     35 H013       -22.8440    30.3560    97.5400 hc         1 A1J       0.035367
     36 H021       -22.2230    30.3740    95.2230 hc         1 A1J       0.047700
     37 H031       -19.6800    29.7130    96.7280 hc         1 A1J       0.059700
     38 H041       -18.8770    29.9360    94.5340 hc         1 A1J       0.037200
     39 H042       -20.2300    30.9100    94.0120 hc         1 A1J       0.037200
     40 H052       -17.6760    31.9420    94.8200 hc         1 A1J       0.040700
     41 H051       -19.1260    32.8920    94.5730 hc         1 A1J       0.040700
     42 H061       -18.2090    31.5030    97.1080 hc         1 A1J       0.047700
     43 H082       -19.7640    30.8680    98.8040 hc         1 A1J       0.042200
     44 H081       -21.4440    31.3580    98.7410 hc         1 A1J       0.042200
     45 H092       -20.8590    33.7180    98.9040 hc         1 A1J       0.039200
     46 H091       -20.1360    32.8170   100.2070 hc         1 A1J       0.039200
     47 H101       -17.9820    32.7630    99.0940 hc         1 A1J       0.064700
     48 H111       -19.2130    34.3390    96.8060 hc         1 A1J       0.047700
     49 H121       -16.4120    33.2140    97.1480 hc         1 A1J       0.039200
     50 H122       -17.0120    34.1130    95.7750 hc         1 A1J       0.039200
     51 H131       -15.6830    35.5730    97.2990 hc         1 A1J       0.039200
     52 H132       -17.3270    36.1290    97.1080 hc         1 A1J       0.039200
     53 H141       -16.7580    36.2980    99.4260 hc         1 A1J       0.038700
     54 H161       -19.3760    34.4320   101.3270 hc         1 A1J       0.047200
     55 H162       -18.3100    35.8060   101.3640 hc         1 A1J       0.047200
     56 H171       -17.3790    34.2120   102.7710 h1         1 A1J       0.020700
     57 H181       -15.8150    35.5020   101.5360 h1         1 A1J       0.032700
     58 H192       -14.8430    34.7780    99.4000 hc         1 A1J       0.057200
     59 H191       -15.8920    33.3730    99.3620 hc         1 A1J       0.057200
     60 H221       -20.3140    35.7910    99.4720 hc         1 A1J       0.032700
     61 H223       -18.9760    36.9280    99.4350 hc         1 A1J       0.032700
     62 H222       -19.4430    36.0690    97.9740 hc         1 A1J       0.032700
     63 H231       -22.3740    32.3360    96.6030 hc         1 A1J       0.031033
     64 H232       -21.2850    33.7000    96.7390 hc         1 A1J       0.031033
     65 H233       -21.3280    32.7610    95.2600 hc         1 A1J       0.031033
     66 H241       -20.6340    28.6090    94.2940 h1         1 A1J       0.039700
     67 H251       -23.5470    28.1270    94.9540 h1         1 A1J       0.039700
     68 H261       -22.4820    29.7770    93.2270 hc         1 A1J       0.043700
     69 H271       -21.0170    28.0530    92.1380 hc         1 A1J       0.034700
     70 H272       -22.4480    27.2970    91.4510 hc         1 A1J       0.034700
     71 H273       -22.0290    28.9510    91.0290 hc         1 A1J       0.034700
     72 H281       -24.8010    29.4710    93.5680 hc         1 A1J       0.036700
     73 H293       -25.5980    30.2250    91.4020 hc         1 A1J       0.032700
     74 H291       -23.9770    30.8690    91.6530 hc         1 A1J       0.032700
     75 H292       -24.2300    29.5020    90.5690 hc         1 A1J       0.032700
     76 H302       -26.1930    27.9300    92.2200 hc         1 A1J       0.032700
     77 H301       -24.7520    27.1460    91.5870 hc         1 A1J       0.032700
     78 H303       -25.1320    27.0380    93.3030 hc         1 A1J       0.032700
     79 H201       -14.8520    33.8240   102.7110 ho         1 A1J       0.442000
     80 H211       -16.6590    32.1720   101.7570 ho         1 A1J       0.452000
     81 H311       -22.7210    26.0760    94.7800 ho         1 A1J       0.445000
     82 H321       -20.5480    26.7120    95.4310 ho         1 A1J       0.444000
@<TRIPOS>BOND
     1     1     2 1   
     2     1    33 1   
     3     1    34 1   
     4     1    35 1   
     5     2     3 1   
     6     2    22 1   
     7     2    36 1   
     8     3     4 1   
     9     3     7 1   
    10     3    37 1   
    11     4     5 1   
    12     4    38 1   
    13     4    39 1   
    14     5     6 1   
    15     5    40 1   
    16     5    41 1   
    17     6     7 1   
    18     6    11 1   
    19     6    42 1   
    20     7     8 1   
    21     7    21 1   
    22     8     9 1   
    23     8    43 1   
    24     8    44 1   
    25     9    10 1   
    26     9    45 1   
    27     9    46 1   
    28    10    11 1   
    29    10    15 1   
    30    10    47 1   
    31    11    12 1   
    32    11    48 1   
    33    12    13 1   
    34    12    49 1   
    35    12    50 1   
    36    13    14 1   
    37    13    51 1   
    38    13    52 1   
    39    14    15 1   
    40    14    19 1   
    41    14    53 1   
    42    15    16 1   
    43    15    20 1   
    44    16    17 1   
    45    16    54 1   
    46    16    55 1   
    47    17    18 1   
    48    17    30 1   
    49    17    56 1   
    50    18    19 1   
    51    18    29 1   
    52    18    57 1   
    53    19    58 1   
    54    19    59 1   
    55    20    60 1   
    56    20    61 1   
    57    20    62 1   
    58    21    63 1   
    59    21    64 1   
    60    21    65 1   
    61    22    23 1   
    62    22    32 1   
    63    22    66 1   
    64    23    24 1   
    65    23    31 1   
    66    23    67 1   
    67    24    25 1   
    68    24    26 1   
    69    24    68 1   
    70    25    69 1   
    71    25    70 1   
    72    25    71 1   
    73    26    27 1   
    74    26    28 1   
    75    26    72 1   
    76    27    73 1   
    77    27    74 1   
    78    27    75 1   
    79    28    76 1   
    80    28    77 1   
    81    28    78 1   
    82    29    79 1   
    83    30    80 1   
    84    31    81 1   
    85    32    82 1   
@<TRIPOS>SUBSTRUCTURE
     1 A1J         1 TEMP              0 ****  ****    0 ROOT
