@<TRIPOS>MOLECULE
A1J
   48    52     1     0     0
SMALL
abcg2


@<TRIPOS>ATOM
      1 C4          14.2520    24.1180    21.9400 ca         1 A1J       0.185900
      2 C6          16.0550    23.0400    21.3060 ca         1 A1J       0.135500
      3 N1          14.1120    21.0210    23.5990 nv         1 A1J      -1.064900
      4 C8          17.5570    21.4590    21.1160 cc         1 A1J       0.406700
      5 C10         15.7300    21.9270    22.0660 ca         1 A1J      -0.103600
      6 C11         18.0040    23.5770    19.8300 c5         1 A1J       0.278300
      7 N3          13.8180    23.1310    22.7190 nb         1 A1J      -0.301000
      8 C13         19.5340    23.2200    18.1160 c5         1 A1J       0.176300
      9 C14         20.3400    21.9280    18.0480 c3         1 A1J       0.025600
     10 C2          14.5390    22.0080    22.8110 ca         1 A1J       0.453900
     11 O12         18.2310    22.9130    18.6170 os         1 A1J      -0.448000
     12 C16         22.4410    20.6800    16.6820 ca         1 A1J      -0.102000
     13 C17         22.1830    19.5080    17.4320 ca         1 A1J      -0.106000
     14 C18         22.6330    18.2960    16.9890 ca         1 A1J      -0.088000
     15 C19         23.3830    18.1850    15.7960 ca         1 A1J      -0.033000
     16 C20         23.8650    16.9440    15.3220 ca         1 A1J      -0.098000
     17 C21         24.5890    16.8740    14.1630 ca         1 A1J      -0.102000
     18 C22         24.8620    18.0450    13.4250 ca         1 A1J      -0.105000
     19 C23         24.4070    19.2600    13.8590 ca         1 A1J      -0.096000
     20 C24         23.6580    19.3630    15.0550 ca         1 A1J      -0.034000
     21 C25         23.1620    20.6030    15.5180 ca         1 A1J      -0.066000
     22 C26         20.1140    24.2740    19.0610 c5         1 A1J       0.151300
     23 C28         19.3980    23.9310    20.3620 c5         1 A1J       0.087300
     24 N5          15.3500    24.1640    21.2060 nb         1 A1J      -0.220000
     25 N7          17.2400    22.7270    20.7030 na         1 A1J      -0.293300
     26 N9          16.6820    20.9480    21.9290 nd         1 A1J      -0.550100
     27 O27         19.7380    25.5390    18.5830 oh         1 A1J      -0.707000
     28 O29         19.4200    24.9980    21.2560 oh         1 A1J      -0.703000
     29 S15         21.9360    22.2740    17.2430 ss         1 A1J      -0.183000
     30 H4          13.6180    24.9980    21.9070 h5         1 A1J       0.048100
     31 H1A         13.2480    21.1130    24.1060 hn         1 A1J       0.508000
     32 H1B         14.6230    20.1600    23.6770 hn         1 A1J       0.508000
     33 H8          18.4520    20.9600    20.7740 h5         1 A1J       0.065800
     34 H11         17.4120    24.4880    19.6920 h2         1 A1J       0.120700
     35 H13         19.4370    23.6310    17.1070 h1         1 A1J       0.106700
     36 H14A        20.4960    21.5060    19.0430 h1         1 A1J       0.074700
     37 H14B        19.7980    21.1980    17.4450 h1         1 A1J       0.074700
     38 H17         21.6310    19.5630    18.3610 ha         1 A1J       0.113000
     39 H18         22.4250    17.4020    17.5660 ha         1 A1J       0.116000
     40 H20         23.6520    16.0470    15.8920 ha         1 A1J       0.114000
     41 H21         24.9550    15.9200    13.8070 ha         1 A1J       0.115000
     42 H22         25.4350    17.9770    12.5090 ha         1 A1J       0.115000
     43 H23         24.6160    20.1590    13.2910 ha         1 A1J       0.116000
     44 H25         23.3550    21.4940    14.9310 ha         1 A1J       0.127000
     45 H26         21.2030    24.1850    19.1630 h1         1 A1J       0.074700
     46 H28         19.8590    23.0320    20.7920 h1         1 A1J       0.048700
     47 H27         19.9510    26.1980    19.2520 ho         1 A1J       0.530000
     48 H29         19.0910    24.7050    22.1120 ho         1 A1J       0.527000
@<TRIPOS>BOND
     1     1     7 ar  
     2     1    24 ar  
     3     1    30 1   
     4     2     5 ar  
     5     2    24 ar  
     6     2    25 1   
     7     3    10 1   
     8     3    31 1   
     9     3    32 1   
    10     4    25 1   
    11     4    26 2   
    12     4    33 1   
    13     5    10 ar  
    14     5    26 1   
    15     6    11 1   
    16     6    23 1   
    17     6    25 1   
    18     6    34 1   
    19     7    10 ar  
    20     8     9 1   
    21     8    11 1   
    22     8    22 1   
    23     8    35 1   
    24     9    29 1   
    25     9    36 1   
    26     9    37 1   
    27    12    13 ar  
    28    12    21 ar  
    29    12    29 1   
    30    13    14 ar  
    31    13    38 1   
    32    14    15 ar  
    33    14    39 1   
    34    15    16 ar  
    35    15    20 ar  
    36    16    17 ar  
    37    16    40 1   
    38    17    18 ar  
    39    17    41 1   
    40    18    19 ar  
    41    18    42 1   
    42    19    20 ar  
    43    19    43 1   
    44    20    21 ar  
    45    21    44 1   
    46    22    23 1   
    47    22    27 1   
    48    22    45 1   
    49    23    28 1   
    50    23    46 1   
    51    27    47 1   
    52    28    48 1   
@<TRIPOS>SUBSTRUCTURE
     1 A1J         1 TEMP              0 ****  ****    0 ROOT
