@<TRIPOS>MOLECULE
A1J
   81    84     1     0     0
SMALL
abcg2


@<TRIPOS>ATOM
      1 C01         41.8650    67.3940    19.0310 c3         1 A1J      -0.084100
      2 C02         42.2210    66.1910    19.9040 c3         1 A1J      -0.038700
      3 C03         41.2720    64.9980    19.7090 c5         1 A1J      -0.051700
      4 C04         41.6160    63.8140    20.6520 c5         1 A1J      -0.078400
      5 C05         40.2970    63.0790    20.9580 c5         1 A1J      -0.071400
      6 C06         39.3000    63.7360    20.0140 c5         1 A1J      -0.065700
      7 C07         39.7530    65.2070    19.9420 c5         1 A1J      -0.038000
      8 C08         38.9660    65.8540    18.8010 c6         1 A1J      -0.063400
      9 C09         37.4540    65.6940    18.9880 c6         1 A1J      -0.070400
     10 C10         37.0250    64.2330    19.1460 c6         1 A1J      -0.053700
     11 C11         37.8140    63.5540    20.2770 c6         1 A1J      -0.038700
     12 C12         37.4570    62.0670    20.3960 c6         1 A1J      -0.181400
     13 C13         35.9680    61.8560    20.4310 c          1 A1J       0.582100
     14 C15         35.2360    62.4880    19.2760 c6         1 A1J      -0.164700
     15 C16         35.4960    64.0230    19.2820 c6         1 A1J      -0.022000
     16 C17         34.7760    64.6160    18.0600 c6         1 A1J      -0.064400
     17 C18         33.3030    64.2450    17.9760 c6         1 A1J       0.131300
     18 C19         33.0920    62.7310    17.9890 c6         1 A1J       0.140300
     19 C20         33.7610    62.1200    19.2090 c6         1 A1J      -0.055400
     20 C23         34.9570    64.6690    20.5640 c3         1 A1J      -0.089100
     21 C24         39.5160    65.9640    21.2530 c3         1 A1J      -0.079100
     22 C25         43.6770    65.7500    19.6920 c3         1 A1J       0.175300
     23 C26         44.7290    66.8180    20.0220 c3         1 A1J       0.134300
     24 C27         44.6330    67.4190    21.4320 c3         1 A1J      -0.077700
     25 C28         44.6710    66.3390    22.5120 c3         1 A1J      -0.085100
     26 C29         45.7030    68.5080    21.6720 c3         1 A1J      -0.062700
     27 C30         45.7100    69.5730    20.5750 c3         1 A1J      -0.090100
     28 C31         45.5040    69.1980    23.0210 c3         1 A1J      -0.090100
     29 O14         35.4100    61.2400    21.3140 o          1 A1J      -0.524100
     30 O21         33.6310    62.1300    16.8310 oh         1 A1J      -0.658000
     31 O22         32.7940    64.8120    16.7810 oh         1 A1J      -0.667000
     32 O32         45.9790    66.1750    19.8080 oh         1 A1J      -0.677000
     33 O33         43.8270    65.3440    18.3450 oh         1 A1J      -0.664000
     34 H012        42.6050    68.1910    19.1170 hc         1 A1J       0.035367
     35 H011        41.7900    67.1240    17.9770 hc         1 A1J       0.035367
     36 H013        40.9130    67.8290    19.3270 hc         1 A1J       0.035367
     37 H021        42.1380    66.4980    20.9520 hc         1 A1J       0.048700
     38 H031        41.3770    64.6530    18.6730 hc         1 A1J       0.064700
     39 H041        42.3460    63.1480    20.1890 hc         1 A1J       0.041700
     40 H042        42.0770    64.1750    21.5750 hc         1 A1J       0.041700
     41 H051        40.3750    62.0030    20.7970 hc         1 A1J       0.042700
     42 H052        39.9960    63.2190    22.0000 hc         1 A1J       0.042700
     43 H061        39.4880    63.3150    19.0140 hc         1 A1J       0.046700
     44 H081        39.2600    65.3800    17.8580 hc         1 A1J       0.043200
     45 H082        39.1940    66.9150    18.6980 hc         1 A1J       0.043200
     46 H092        37.1260    66.2810    19.8510 hc         1 A1J       0.041700
     47 H091        36.9560    66.1340    18.1210 hc         1 A1J       0.041700
     48 H101        37.3160    63.7180    18.2170 hc         1 A1J       0.048700
     49 H111        37.5630    64.0310    21.2310 hc         1 A1J       0.056700
     50 H121        37.8430    61.5410    19.5140 hc         1 A1J       0.067700
     51 H122        37.9190    61.6200    21.2770 hc         1 A1J       0.067700
     52 H151        35.7270    62.1090    18.3700 hc         1 A1J       0.082700
     53 H171        35.2820    64.2770    17.1500 hc         1 A1J       0.058200
     54 H172        34.8540    65.7050    18.0790 hc         1 A1J       0.058200
     55 H181        32.7730    64.6580    18.8450 h1         1 A1J       0.039700
     56 H191        32.0090    62.5360    18.0490 h1         1 A1J       0.028700
     57 H202        33.2290    62.4510    20.1030 hc         1 A1J       0.062200
     58 H201        33.6460    61.0330    19.1770 hc         1 A1J       0.062200
     59 H231        35.0550    65.7550    20.5180 hc         1 A1J       0.037367
     60 H233        33.9010    64.4540    20.7230 hc         1 A1J       0.037367
     61 H232        35.4830    64.3370    21.4600 hc         1 A1J       0.037367
     62 H242        39.7820    67.0160    21.1370 hc         1 A1J       0.032367
     63 H241        38.4750    65.9350    21.5750 hc         1 A1J       0.032367
     64 H243        40.1150    65.5720    22.0770 hc         1 A1J       0.032367
     65 H251        43.8730    64.8950    20.3540 h1         1 A1J       0.043700
     66 H261        44.6060    67.6270    19.2910 h1         1 A1J       0.042700
     67 H271        43.6630    67.9300    21.4880 hc         1 A1J       0.051700
     68 H281        43.8800    65.6010    22.3760 hc         1 A1J       0.037033
     69 H283        45.6230    65.8060    22.5050 hc         1 A1J       0.037033
     70 H282        44.5330    66.7570    23.5070 hc         1 A1J       0.037033
     71 H291        46.6880    68.0260    21.6890 hc         1 A1J       0.047700
     72 H302        46.3900    70.3850    20.8360 hc         1 A1J       0.033367
     73 H303        46.0320    69.1920    19.6050 hc         1 A1J       0.033367
     74 H301        44.7140    70.0050    20.4460 hc         1 A1J       0.033367
     75 H312        46.2410    69.9910    23.1580 hc         1 A1J       0.033367
     76 H311        44.5130    69.6550    23.0800 hc         1 A1J       0.033367
     77 H313        45.6070    68.5170    23.8650 hc         1 A1J       0.033367
     78 H211        33.3880    62.6850    16.0810 ho         1 A1J       0.453000
     79 H221        31.8330    64.7540    16.8020 ho         1 A1J       0.444000
     80 H321        46.6420    66.8400    19.6020 ho         1 A1J       0.448000
     81 H331        44.7590    65.1410    18.2150 ho         1 A1J       0.455000
@<TRIPOS>BOND
     1     1     2 1   
     2     1    34 1   
     3     1    35 1   
     4     1    36 1   
     5     2     3 1   
     6     2    22 1   
     7     2    37 1   
     8     3     4 1   
     9     3     7 1   
    10     3    38 1   
    11     4     5 1   
    12     4    39 1   
    13     4    40 1   
    14     5     6 1   
    15     5    41 1   
    16     5    42 1   
    17     6     7 1   
    18     6    11 1   
    19     6    43 1   
    20     7     8 1   
    21     7    21 1   
    22     8     9 1   
    23     8    44 1   
    24     8    45 1   
    25     9    10 1   
    26     9    46 1   
    27     9    47 1   
    28    10    11 1   
    29    10    15 1   
    30    10    48 1   
    31    11    12 1   
    32    11    49 1   
    33    12    13 1   
    34    12    50 1   
    35    12    51 1   
    36    13    14 1   
    37    13    29 2   
    38    14    15 1   
    39    14    19 1   
    40    14    52 1   
    41    15    16 1   
    42    15    20 1   
    43    16    17 1   
    44    16    53 1   
    45    16    54 1   
    46    17    18 1   
    47    17    31 1   
    48    17    55 1   
    49    18    19 1   
    50    18    30 1   
    51    18    56 1   
    52    19    57 1   
    53    19    58 1   
    54    20    59 1   
    55    20    60 1   
    56    20    61 1   
    57    21    62 1   
    58    21    63 1   
    59    21    64 1   
    60    22    23 1   
    61    22    33 1   
    62    22    65 1   
    63    23    24 1   
    64    23    32 1   
    65    23    66 1   
    66    24    25 1   
    67    24    26 1   
    68    24    67 1   
    69    25    68 1   
    70    25    69 1   
    71    25    70 1   
    72    26    27 1   
    73    26    28 1   
    74    26    71 1   
    75    27    72 1   
    76    27    73 1   
    77    27    74 1   
    78    28    75 1   
    79    28    76 1   
    80    28    77 1   
    81    30    78 1   
    82    31    79 1   
    83    32    80 1   
    84    33    81 1   
@<TRIPOS>SUBSTRUCTURE
     1 A1J         1 TEMP              0 ****  ****    0 ROOT
