@<TRIPOS>MOLECULE
A1J
   40    42     1     0     0
SMALL
abcg2


@<TRIPOS>ATOM
      1 C10        112.9000   134.7360   142.1780 c3         1 A1J       0.153900
      2 C15        114.2200   133.7870   146.6750 ca         1 A1J       0.208000
      3 C17        113.4650   131.5320   146.4020 ca         1 A1J      -0.070000
      4 C20        112.7660   129.1080   147.6040 ca         1 A1J      -0.103000
      5 C21        113.1870   130.1450   148.3920 ca         1 A1J      -0.079000
      6 C22        113.5460   131.3810   147.8090 ca         1 A1J       0.260000
      7 C24        114.2860   133.5260   148.0660 ca         1 A1J       0.333900
      8 C01        116.6180   140.5910   144.6430 c3         1 A1J       0.145900
      9 C03        115.3090   138.9520   143.5370 ca         1 A1J       0.088100
     10 C04        115.7680   137.9300   144.3550 ca         1 A1J      -0.077000
     11 C05        115.2710   136.6390   144.1900 ca         1 A1J      -0.284500
     12 C06        114.3110   136.3360   143.2220 ca         1 A1J       0.215100
     13 C07        113.8760   137.3720   142.3950 ca         1 A1J      -0.185000
     14 C08        114.3680   138.6540   142.5530 ca         1 A1J      -0.049000
     15 C16        113.8000   132.7830   145.8460 ca         1 A1J      -0.043000
     16 C18        113.0270   130.4440   145.6130 ca         1 A1J      -0.090000
     17 C19        112.6860   129.2580   146.2030 ca         1 A1J      -0.105000
     18 N14        114.5220   135.0780   146.1980 nu         1 A1J      -0.889100
     19 N23        113.9540   132.3920   148.6120 nb         1 A1J      -0.646000
     20 O09        113.8630   135.0780   143.1580 os         1 A1J      -0.334100
     21 O12        116.9300   135.9640   146.0780 o          1 A1J      -0.536500
     22 O13        116.1820   134.1570   144.5360 o          1 A1J      -0.536500
     23 S11        115.8790   135.3740   145.2640 sy         1 A1J       1.162600
     24 H103       112.6950   133.6770   142.3140 h1         1 A1J       0.047367
     25 H102       111.9720   135.2960   142.3080 h1         1 A1J       0.047367
     26 H101       113.2780   134.8970   141.1660 h1         1 A1J       0.047367
     27 H201       112.4900   128.1650   148.0550 ha         1 A1J       0.117000
     28 H211       113.2490   130.0430   149.4680 ha         1 A1J       0.131000
     29 H241       114.6150   134.3190   148.7340 h4         1 A1J       0.019100
     30 H012       116.7890   141.6600   144.5460 h1         1 A1J       0.044033
     31 H011       116.2110   140.3890   145.6370 h1         1 A1J       0.044033
     32 H013       117.5750   140.0720   144.5410 h1         1 A1J       0.044033
     33 H041       116.5020   138.1140   145.1260 ha         1 A1J       0.148000
     34 H071       113.1420   137.1930   141.6220 ha         1 A1J       0.124000
     35 H081       114.0110   139.4430   141.9030 ha         1 A1J       0.131000
     36 H161       113.7060   132.9370   144.7800 ha         1 A1J       0.142000
     37 H181       112.9650   130.5650   144.5380 ha         1 A1J       0.117000
     38 H191       112.3520   128.4270   145.5960 ha         1 A1J       0.115000
     39 H141       114.3840   135.8210   146.8780 hn         1 A1J       0.484000
     40 O02        115.7110   140.2350   143.6200 os         1 A1J      -0.342100
@<TRIPOS>BOND
     1     1    20 1   
     2     1    24 1   
     3     1    25 1   
     4     1    26 1   
     5     2     7 ar  
     6     2    15 ar  
     7     2    18 1   
     8     3     6 ar  
     9     3    15 ar  
    10     3    16 ar  
    11     4     5 ar  
    12     4    17 ar  
    13     4    27 1   
    14     5     6 ar  
    15     5    28 1   
    16     6    19 ar  
    17     7    19 ar  
    18     7    29 1   
    19     8    30 1   
    20     8    31 1   
    21     8    32 1   
    22     8    40 1   
    23     9    10 ar  
    24     9    14 ar  
    25     9    40 1   
    26    10    11 ar  
    27    10    33 1   
    28    11    12 ar  
    29    11    23 1   
    30    12    13 ar  
    31    12    20 1   
    32    13    14 ar  
    33    13    34 1   
    34    14    35 1   
    35    15    36 1   
    36    16    17 ar  
    37    16    37 1   
    38    17    38 1   
    39    18    23 1   
    40    18    39 1   
    41    21    23 2   
    42    22    23 2   
@<TRIPOS>SUBSTRUCTURE
     1 A1J         1 TEMP              0 ****  ****    0 ROOT
