@<TRIPOS>MOLECULE
A1J
   69    73     1     0     0
SMALL
abcg2


@<TRIPOS>ATOM
      1 C1         -10.6760    36.5600    10.6850 c3         1 A1J      -0.094100
      2 C2         -11.1420    35.9130     9.3960 c6         1 A1J       0.150300
      3 C3         -12.3140    36.6380     8.7330 c6         1 A1J       0.102300
      4 C4         -12.6630    35.9380     7.4140 c6         1 A1J       0.170500
      5 C5         -11.4120    35.8490     6.5460 c6         1 A1J      -0.086400
      6 C6         -10.2410    35.2280     7.2900 c6         1 A1J       0.383300
      7 O7         -10.0200    35.8460     8.5280 os         1 A1J      -0.474000
      8 O8         -10.4860    33.8560     7.4230 os         1 A1J      -0.472000
      9 C9          -9.3650    33.0580     7.7700 c6         1 A1J       0.238600
     10 C10         -9.3370    32.6610     9.2390 c6         1 A1J      -0.125400
     11 C11        -10.3010    31.5250     9.5710 c6         1 A1J       0.197000
     12 C12         -9.8840    30.2930     8.7830 c6         1 A1J      -0.020100
     13 C13         -9.5970    30.5820     7.3370 ca         1 A1J      -0.028300
     14 C14         -9.3610    31.8510     6.8600 ca         1 A1J      -0.074300
     15 C15         -9.0880    32.0610     5.4820 ca         1 A1J       0.208100
     16 C16         -9.0590    30.9850     4.5980 ca         1 A1J      -0.238600
     17 C17         -9.2910    29.6800     5.0920 ca         1 A1J      -0.225600
     18 C18         -9.5450    29.4800     6.4450 ca         1 A1J       0.184100
     19 O19         -9.7460    28.2740     6.9660 oh         1 A1J      -0.546100
     20 C20         -9.2570    28.5440     4.1920 c          1 A1J       0.610300
     21 O21         -9.4380    27.3960     4.6020 o          1 A1J      -0.571100
     22 C22         -9.0030    28.7810     2.7530 ca         1 A1J      -0.085600
     23 C23         -8.7730    30.0780     2.2560 ca         1 A1J      -0.165600
     24 C24         -8.7760    31.2240     3.1830 c          1 A1J       0.620300
     25 O25         -8.5470    32.3720     2.7950 o          1 A1J      -0.556100
     26 C26         -8.5430    30.2360     0.8690 ca         1 A1J       0.198100
     27 C27         -8.5470    29.1100     0.0410 ca         1 A1J      -0.201000
     28 C28         -8.7720    27.8510     0.5620 ca         1 A1J      -0.052000
     29 C29         -9.0020    27.6770     1.9150 ca         1 A1J      -0.109000
     30 O30         -8.3310    31.4600     0.3940 os         1 A1J      -0.307100
     31 C31         -8.1060    31.6440    -0.9930 c3         1 A1J       0.146900
     32 O32         -8.8490    33.3070     5.0940 oh         1 A1J      -0.556100
     33 C33        -10.3160    31.2630    11.0910 c3         1 A1J       0.150300
     34 C34        -11.2480    30.1350    11.5120 c3         1 A1J      -0.125100
     35 O35         -8.9870    31.0120    11.4980 oh         1 A1J      -0.663000
     36 O36        -11.6160    31.8260     9.1460 oh         1 A1J      -0.645000
     37 N37        -13.7480    36.5470     6.6660 n8         1 A1J      -0.985200
     38 O38        -12.0220    37.9870     8.4460 oh         1 A1J      -0.714000
     39 H1         -11.5080    36.6440    11.3860 hc         1 A1J       0.043700
     40 H2          -9.9020    35.9590    11.1620 hc         1 A1J       0.043700
     41 H3         -10.2690    37.5580    10.5160 hc         1 A1J       0.043700
     42 H4         -11.4980    34.9020     9.6380 h1         1 A1J       0.032700
     43 H5         -13.1780    36.5570     9.4100 h1         1 A1J       0.026700
     44 H6         -12.9790    34.9220     7.6730 h1         1 A1J       0.071700
     45 H7         -11.1170    36.8500     6.2210 hc         1 A1J       0.074200
     46 H8         -11.6170    35.2730     5.6410 hc         1 A1J       0.074200
     47 H9          -9.3110    35.3880     6.7330 h2         1 A1J       0.082700
     48 H10         -8.4450    33.6250     7.5750 h1         1 A1J       0.060700
     49 H11         -8.3190    32.3500     9.4810 hc         1 A1J       0.066700
     50 H12         -9.5430    33.5390     9.8570 hc         1 A1J       0.066700
     51 H13        -10.6660    29.5350     8.8500 hc         1 A1J       0.081200
     52 H14         -8.9950    29.8440     9.2360 hc         1 A1J       0.081200
     53 H15         -9.6850    27.6210     6.2290 ho         1 A1J       0.516000
     54 H16         -8.3720    29.2080    -1.0210 ha         1 A1J       0.124000
     55 H17         -8.7690    26.9960    -0.1010 ha         1 A1J       0.121000
     56 H18         -9.1800    26.6890     2.3150 ha         1 A1J       0.143000
     57 H19         -7.9690    32.7120    -1.1350 h1         1 A1J       0.047033
     58 H20         -7.2080    31.1230    -1.3320 h1         1 A1J       0.047033
     59 H21         -8.9600    31.3140    -1.5900 h1         1 A1J       0.047033
     60 H22         -8.6630    33.2680     4.1200 ho         1 A1J       0.522000
     61 H23        -10.6810    32.1960    11.5530 h1         1 A1J       0.020700
     62 H24        -11.2780    30.0620    12.6010 hc         1 A1J       0.046033
     63 H25        -12.2660    30.3110    11.1710 hc         1 A1J       0.046033
     64 H26        -10.9180    29.1690    11.1260 hc         1 A1J       0.046033
     65 H27         -8.9860    30.8500    12.4460 ho         1 A1J       0.446000
     66 H28        -11.8460    32.7120     9.4440 ho         1 A1J       0.442000
     67 H29        -14.5970    36.5210     7.2190 hn         1 A1J       0.398500
     68 H30        -13.5450    37.5280     6.5200 hn         1 A1J       0.398500
     69 H32        -12.0490    38.4960     9.2610 ho         1 A1J       0.504000
@<TRIPOS>BOND
     1     1     2 1   
     2     1    39 1   
     3     1    40 1   
     4     1    41 1   
     5     2     3 1   
     6     2     7 1   
     7     2    42 1   
     8     3     4 1   
     9     3    38 1   
    10     3    43 1   
    11     4     5 1   
    12     4    37 1   
    13     4    44 1   
    14     5     6 1   
    15     5    45 1   
    16     5    46 1   
    17     6     7 1   
    18     6     8 1   
    19     6    47 1   
    20     8     9 1   
    21     9    10 1   
    22     9    14 1   
    23     9    48 1   
    24    10    11 1   
    25    10    49 1   
    26    10    50 1   
    27    11    12 1   
    28    11    33 1   
    29    11    36 1   
    30    12    13 1   
    31    12    51 1   
    32    12    52 1   
    33    13    14 ar  
    34    13    18 ar  
    35    14    15 ar  
    36    15    16 ar  
    37    15    32 1   
    38    16    17 ar  
    39    16    24 1   
    40    17    18 ar  
    41    17    20 1   
    42    18    19 1   
    43    19    53 1   
    44    20    21 2   
    45    20    22 1   
    46    22    23 ar  
    47    22    29 ar  
    48    23    24 1   
    49    23    26 ar  
    50    24    25 2   
    51    26    27 ar  
    52    26    30 1   
    53    27    28 ar  
    54    27    54 1   
    55    28    29 ar  
    56    28    55 1   
    57    29    56 1   
    58    30    31 1   
    59    31    57 1   
    60    31    58 1   
    61    31    59 1   
    62    32    60 1   
    63    33    34 1   
    64    33    35 1   
    65    33    61 1   
    66    34    62 1   
    67    34    63 1   
    68    34    64 1   
    69    35    65 1   
    70    36    66 1   
    71    37    67 1   
    72    37    68 1   
    73    38    69 1   
@<TRIPOS>SUBSTRUCTURE
     1 A1J         1 TEMP              0 ****  ****    0 ROOT
