@<TRIPOS>MOLECULE
A1J
   67    70     1     0     0
SMALL
abcg2


@<TRIPOS>ATOM
      1 C1         100.3660   -20.4100     4.1160 c          1 A1J       0.626300
      2 C2         100.8060   -21.6800     3.5210 ce         1 A1J      -0.331400
      3 C3         100.3850   -22.0450     2.2780 c2         1 A1J       0.264800
      4 C4          99.3330   -21.3360     1.4840 c3         1 A1J      -0.080900
      5 C5         100.6740   -23.4580     0.2730 ca         1 A1J       0.239000
      6 C6         101.3340   -22.7260    -0.7000 ca         1 A1J      -0.072000
      7 C7         101.1130   -23.0130    -2.0380 ca         1 A1J      -0.103000
      8 C8         100.2450   -24.0300    -2.3970 ca         1 A1J      -0.038000
      9 C9          99.5930   -24.7650    -1.4110 ca         1 A1J      -0.188300
     10 C10         99.8080   -24.4850    -0.0700 ca         1 A1J      -0.034000
     11 C12        101.9240   -23.8560     2.2500 cc         1 A1J       0.573800
     12 C15        101.0490   -23.1870     5.5390 ca         1 A1J      -0.054300
     13 C20        101.3880   -22.9490     6.8750 ca         1 A1J      -0.073300
     14 C19        100.6800   -23.6130     7.8720 ca         1 A1J      -0.083000
     15 C18         99.6590   -24.5020     7.5600 ca         1 A1J       0.013000
     16 C17         99.3180   -24.7360     6.2300 ca         1 A1J      -0.053000
     17 C16        100.0130   -24.0710     5.2410 ca         1 A1J      -0.090000
     18 N5          98.3960   -25.7020     9.4630 n1         1 A1J      -0.407000
     19 C26         98.9590   -25.1680     8.6110 cg         1 A1J       0.300000
     20 C21        102.4880   -22.0190     7.3310 c3         1 A1J      -0.039100
     21 C22        103.7040   -22.8480     7.7190 c3         1 A1J       0.085600
     22 N4         104.9220   -22.0530     8.1140 n4         1 A1J      -0.495000
     23 C25        104.6420   -21.1940     9.2970 c3         1 A1J       0.075233
     24 C24        105.9940   -23.0260     8.4720 c3         1 A1J       0.075233
     25 C23        105.4000   -21.2100     6.9820 c3         1 A1J       0.075233
     26 C14        101.7550   -22.5250     4.3590 c6         1 A1J       0.271200
     27 O1          99.7990   -19.5020     3.5540 o          1 A1J      -0.478000
     28 O          100.7080   -20.3420     5.4000 os         1 A1J      -0.468100
     29 C          100.4040   -19.1450     6.1110 c3         1 A1J       0.153900
     30 N3         102.3300   -23.5420     3.5030 n          1 A1J      -0.348300
     31 C13        103.3740   -24.3990     3.8260 c          1 A1J       0.584000
     32 O2         104.0130   -24.4330     4.8610 o          1 A1J      -0.612000
     33 N2         103.4820   -25.1570     2.7120 ns         1 A1J      -0.353400
     34 N1         102.5930   -24.8250     1.7310 n2         1 A1J      -0.491300
     35 N          100.9100   -23.1620     1.6510 nh         1 A1J      -0.633200
     36 C11         98.6620   -25.8580    -1.8390 c3         1 A1J       0.361300
     37 F2          99.3160   -26.8410    -2.4740 f          1 A1J      -0.106000
     38 F1          97.7360   -25.4030    -2.6940 f          1 A1J      -0.106000
     39 F           98.0160   -26.4170    -0.8140 f          1 A1J      -0.106000
     40 H1          98.6300   -20.8170     2.1220 hc         1 A1J       0.082033
     41 H2          99.7790   -20.6040     0.8090 hc         1 A1J       0.082033
     42 H3          98.7760   -22.0440     0.8740 hc         1 A1J       0.082033
     43 H4         102.0130   -21.9320    -0.4130 ha         1 A1J       0.130000
     44 H5         101.6200   -22.4420    -2.8040 ha         1 A1J       0.138000
     45 H6         100.0800   -24.2420    -3.4450 ha         1 A1J       0.144000
     46 H7          99.3080   -25.0370     0.7150 ha         1 A1J       0.145000
     47 H8         100.9270   -23.4290     8.9110 ha         1 A1J       0.118000
     48 H9          98.5200   -25.4200     5.9770 ha         1 A1J       0.144000
     49 H10         99.7320   -24.2490     4.2100 ha         1 A1J       0.130000
     50 H11        102.7340   -21.2970     6.5580 hc         1 A1J       0.067200
     51 H12        102.1160   -21.4500     8.1830 hc         1 A1J       0.067200
     52 H13        103.4730   -23.4920     8.5670 hx         1 A1J       0.113700
     53 H14        104.0040   -23.4750     6.8820 hx         1 A1J       0.113700
     54 H15        104.2620   -21.8130    10.1060 hx         1 A1J       0.096144
     55 H16        105.5650   -20.7090     9.6060 hx         1 A1J       0.096144
     56 H17        103.9110   -20.4330     9.0390 hx         1 A1J       0.096144
     57 H18        105.6510   -23.6440     9.2970 hx         1 A1J       0.096144
     58 H19        106.2140   -23.6490     7.6090 hx         1 A1J       0.096144
     59 H20        106.8840   -22.4780     8.7680 hx         1 A1J       0.096144
     60 H21        106.3500   -20.7620     7.2590 hx         1 A1J       0.096144
     61 H22        105.5250   -21.8370     6.1020 hx         1 A1J       0.096144
     62 H23        104.6810   -20.4220     6.7780 hx         1 A1J       0.096144
     63 H24        102.5830   -21.9100     4.7120 h1         1 A1J       0.066700
     64 H25        100.7670   -19.3000     7.1230 h1         1 A1J       0.050700
     65 H26        100.9070   -18.2820     5.6750 h1         1 A1J       0.050700
     66 H27         99.3310   -18.9590     6.1370 h1         1 A1J       0.050700
     67 H28        104.1420   -25.9030     2.5630 hn         1 A1J       0.504000
@<TRIPOS>BOND
     1     1     2 1   
     2     1    27 2   
     3     1    28 1   
     4     2     3 2   
     5     2    26 1   
     6     3     4 1   
     7     3    35 1   
     8     4    40 1   
     9     4    41 1   
    10     4    42 1   
    11     5     6 ar  
    12     5    10 ar  
    13     5    35 1   
    14     6     7 ar  
    15     6    43 1   
    16     7     8 ar  
    17     7    44 1   
    18     8     9 ar  
    19     8    45 1   
    20     9    10 ar  
    21     9    36 1   
    22    10    46 1   
    23    11    30 1   
    24    11    34 2   
    25    11    35 1   
    26    12    13 ar  
    27    12    17 ar  
    28    12    26 1   
    29    13    14 ar  
    30    13    20 1   
    31    14    15 ar  
    32    14    47 1   
    33    15    16 ar  
    34    15    19 1   
    35    16    17 ar  
    36    16    48 1   
    37    17    49 1   
    38    18    19 3   
    39    20    21 1   
    40    20    50 1   
    41    20    51 1   
    42    21    22 1   
    43    21    52 1   
    44    21    53 1   
    45    22    23 1   
    46    22    24 1   
    47    22    25 1   
    48    23    54 1   
    49    23    55 1   
    50    23    56 1   
    51    24    57 1   
    52    24    58 1   
    53    24    59 1   
    54    25    60 1   
    55    25    61 1   
    56    25    62 1   
    57    26    30 1   
    58    26    63 1   
    59    28    29 1   
    60    29    64 1   
    61    29    65 1   
    62    29    66 1   
    63    30    31 1   
    64    31    32 2   
    65    31    33 1   
    66    33    34 1   
    67    33    67 1   
    68    36    37 1   
    69    36    38 1   
    70    36    39 1   
@<TRIPOS>SUBSTRUCTURE
     1 A1J         1 TEMP              0 ****  ****    0 ROOT
