@<TRIPOS>MOLECULE
A1J
   34    36     1     0     0
SMALL
abcg2


@<TRIPOS>ATOM
      1 N1          -5.0370    15.0380    48.2260 ns         1 A1J      -0.429400
      2 N3          -3.8310    18.5520    46.9460 na         1 A1J      -0.091000
      3 C4          -2.4810    18.5330    47.1480 cc         1 A1J      -0.150000
      4 C5          -2.1170    17.3290    47.6990 cd         1 A1J      -0.107500
      5 C6          -0.7510    16.9790    48.0410 cd         1 A1J       0.277500
      6 C8           2.1280    15.2790    50.7390 c3         1 A1J       0.196800
      7 C10         -0.2070    15.8400    48.5850 cc         1 A1J      -0.181000
      8 C1          -3.6660    15.2780    48.3250 c          1 A1J       0.610600
      9 C11         -3.3300    16.5810    47.8350 cd         1 A1J      -0.257600
     10 C2          -5.9550    15.9020    47.7360 cd         1 A1J       0.503800
     11 C3          -4.3640    17.3840    47.3530 cc         1 A1J       0.104400
     12 C9           2.1250    16.9450    52.5770 c2         1 A1J       0.786100
     13 N2          -5.6800    17.0790    47.2890 nc         1 A1J      -0.620100
     14 N4           0.2680    17.8490    47.8240 nd         1 A1J      -0.367000
     15 N5           1.3750    17.3140    48.1990 nc         1 A1J      -0.196800
     16 N6           1.1090    16.1040    48.6530 na         1 A1J       0.124800
     17 N7           2.2660    16.6260    51.2440 nu         1 A1J      -0.886400
     18 N8           2.8220    17.9080    53.0560 n2         1 A1J      -0.889100
     19 N9           1.2410    16.1600    53.2790 nv         1 A1J      -1.068200
     20 O1          -2.9250    14.4220    48.7840 o          1 A1J      -0.565000
     21 H1          -5.3630    14.1360    48.5510 hn         1 A1J       0.328500
     22 H3          -4.3510    19.3210    46.5530 hn         1 A1J       0.365000
     23 H4          -1.8720    19.3800    46.8820 h4         1 A1J       0.171000
     24 H5           2.0420    14.2620    48.8500 h1         1 A1J       0.077200
     25 H6           3.1030    15.6660    48.8430 h1         1 A1J       0.077200
     26 H7           1.1850    14.8410    51.0660 h1         1 A1J       0.049200
     27 H8           2.9240    14.6080    51.0830 h1         1 A1J       0.049200
     28 H14         -0.6410    14.9090    48.9040 h4         1 A1J       0.190000
     29 H2          -6.9780    15.5460    47.7360 h5         1 A1J       0.049800
     30 H9           3.0360    17.1390    50.8370 hn         1 A1J       0.489000
     31 H10          2.5540    18.1080    54.0130 hn         1 A1J       0.381400
     32 H12          0.9830    16.5170    54.1850 hn         1 A1J       0.455500
     33 H13          0.4410    15.8020    52.7790 hn         1 A1J       0.455500
     34 C7           2.1560    15.2800    49.2190 c3         1 A1J       0.067600
@<TRIPOS>BOND
     1     1     8 1   
     2     1    10 1   
     3     1    21 1   
     4     2     3 1   
     5     2    11 1   
     6     2    22 1   
     7     3     4 2   
     8     3    23 1   
     9     4     5 1   
    10     4     9 1   
    11     5     7 2   
    12     5    14 1   
    13     6    17 1   
    14     6    26 1   
    15     6    27 1   
    16     6    34 1   
    17     7    16 1   
    18     7    28 1   
    19     8     9 1   
    20     8    20 2   
    21     9    11 2   
    22    10    13 2   
    23    10    29 1   
    24    11    13 1   
    25    12    17 1   
    26    12    18 2   
    27    12    19 1   
    28    14    15 2   
    29    15    16 1   
    30    16    34 1   
    31    17    30 1   
    32    18    31 1   
    33    19    32 1   
    34    19    33 1   
    35    24    34 1   
    36    25    34 1   
@<TRIPOS>SUBSTRUCTURE
     1 A1J         1 TEMP              0 ****  ****    0 ROOT
