@<TRIPOS>MOLECULE
A1J
   21    21     1     0     0
SMALL
abcg2


@<TRIPOS>ATOM
      1 C9          -0.4170    14.1230     9.2530 c          1 A1J       0.718000
      2 C10          1.0330    13.5910     9.1760 c3         1 A1J       0.015800
      3 O2          -0.6910    15.1800     8.6560 o          1 A1J      -0.731500
      4 C15          2.3510    15.5970     9.6510 c3         1 A1J       0.177800
      5 C16          2.9120    15.1580    11.0160 c3         1 A1J      -0.146700
      6 C17          4.1250    14.3050    10.8900 cc         1 A1J       0.232300
      7 C18          4.2530    12.9450    11.0260 cd         1 A1J      -0.217000
      8 N5           2.0220    14.5440     8.7150 n7         1 A1J      -0.828400
      9 N6           5.5490    12.7140    10.7630 na         1 A1J      -0.020200
     10 N7           6.1930    13.8280    10.4820 nd         1 A1J      -0.229800
     11 N8           5.3420    14.7940    10.5540 nc         1 A1J      -0.370000
     12 H2           1.2750    13.1330    10.1470 h1         1 A1J       0.002200
     13 H3           1.0250    12.7590     8.4630 h1         1 A1J       0.002200
     14 H4           3.0830    16.2540     9.1740 h1         1 A1J       0.057700
     15 H5           1.4600    16.2020     9.8250 h1         1 A1J       0.057700
     16 H6           3.1520    16.0560    11.5910 hc         1 A1J       0.053700
     17 H7           2.1530    14.6210    11.5870 hc         1 A1J       0.053700
     18 H8           3.5530    12.1660    11.2780 h4         1 A1J       0.173000
     19 H9           2.8670    14.0490     8.4610 hn         1 A1J       0.367000
     20 H11          6.0410    11.8320    10.7660 hn         1 A1J       0.364000
     21 OXT         -1.2020    13.3990     9.8990 o          1 A1J      -0.731500
@<TRIPOS>BOND
     1     1     2 1   
     2     1     3 1   
     3     1    21 1   
     4     2     8 1   
     5     2    12 1   
     6     2    13 1   
     7     4     5 1   
     8     4     8 1   
     9     4    14 1   
    10     4    15 1   
    11     5     6 1   
    12     5    16 1   
    13     5    17 1   
    14     6     7 2   
    15     6    11 1   
    16     7     9 1   
    17     7    18 1   
    18     8    19 1   
    19     9    10 1   
    20     9    20 1   
    21    10    11 2   
@<TRIPOS>SUBSTRUCTURE
     1 A1J         1 TEMP              0 ****  ****    0 ROOT
