@<TRIPOS>MOLECULE
A1J
   55    59     1     0     0
SMALL
abcg2


@<TRIPOS>ATOM
      1 C1         300.7290   269.9280   289.3320 cc         1 A1J      -0.156400
      2 C2         301.2770   266.1170   287.9690 ca         1 A1J       0.124900
      3 C3         300.8020   270.7170   290.6040 c3         1 A1J       0.006800
      4 C4         300.8710   268.2920   287.7280 ca         1 A1J       0.128500
      5 C5         300.9530   268.5210   289.1170 ca         1 A1J      -0.212800
      6 C6         301.2220   267.3800   289.8990 ca         1 A1J       0.390900
      7 C7         302.2450   271.1140   290.9520 c3         1 A1J      -0.025200
      8 C8         300.5280   270.4730   288.0940 cd         1 A1J      -0.064100
      9 C9         301.5060   272.1620   293.1950 cc         1 A1J      -0.200100
     10 C10        303.1930   273.5840   293.6160 ca         1 A1J      -0.044200
     11 C11        304.0540   274.5460   294.1440 ca         1 A1J      -0.165000
     12 C12        305.2020   274.8440   293.4240 ca         1 A1J      -0.099000
     13 C13        305.4870   274.2010   292.2050 ca         1 A1J      -0.164000
     14 C14        304.6310   273.2440   291.6840 ca         1 A1J      -0.002000
     15 C15        303.4630   272.9200   292.3880 ca         1 A1J      -0.083800
     16 C16        302.3710   272.0150   292.1400 cd         1 A1J      -0.062400
     17 C17        300.6010   269.6930   285.6840 c5         1 A1J       0.326300
     18 C18        299.5330   270.6660   285.1830 c5         1 A1J      -0.140400
     19 C19        300.2120   271.3550   284.0050 c5         1 A1J       0.141300
     20 C20        301.6810   271.3850   284.4220 c5         1 A1J       0.159300
     21 C21        302.1220   272.6560   285.1270 c3         1 A1J       0.227600
     22 N1         301.3830   266.1850   289.3020 nb         1 A1J      -0.324000
     23 N3         301.0280   267.1070   287.1210 nb         1 A1J      -0.221000
     24 N4         301.9980   273.0970   294.0850 na         1 A1J      -0.253700
     25 N6         301.2990   267.4110   291.2530 nv         1 A1J      -1.082900
     26 N9         300.6000   269.4870   287.1130 na         1 A1J      -0.198400
     27 O3         300.1260   270.5770   282.8030 oh         1 A1J      -0.749000
     28 O4         301.8620   270.2310   285.2670 os         1 A1J      -0.460000
     29 O5         301.2590   272.9570   286.1980 os         1 A1J      -0.613400
     30 P          301.7490   274.0510   287.3800 p5         1 A1J       1.269900
     31 H2         301.4170   265.1320   287.5350 h5         1 A1J       0.015100
     32 H1         300.2120   271.6280   290.4890 hc         1 A1J       0.043700
     33 H3         300.3510   270.1630   291.4320 hc         1 A1J       0.043700
     34 H4         302.8460   270.2080   291.0960 hc         1 A1J       0.073700
     35 H5         302.6750   271.6150   290.0820 hc         1 A1J       0.073700
     36 H8         300.3880   271.5090   287.8310 h4         1 A1J       0.313000
     37 H9         305.8900   275.5890   293.8050 ha         1 A1J       0.083000
     38 H10        306.3910   274.4620   291.6690 ha         1 A1J       0.103000
     39 H11        304.8580   272.7590   290.7420 ha         1 A1J       0.154000
     40 H13        300.4860   268.7050   285.2410 h2         1 A1J       0.066700
     41 H12        299.3000   271.4030   285.9460 hc         1 A1J       0.073700
     42 H2'2       298.6180   270.1510   284.8920 hc         1 A1J       0.073700
     43 H14        299.8200   272.3600   283.8320 h1         1 A1J       0.074700
     44 H15        302.3140   271.2500   283.5410 h1         1 A1J       0.042700
     45 H16        303.1470   272.5140   285.4860 h1         1 A1J       0.021700
     46 H5'        302.1340   273.4710   284.3900 h1         1 A1J       0.021700
     47 H19        301.5330   273.3950   294.9260 hn         1 A1J       0.325000
     48 H61        301.6690   266.5970   291.7170 hn         1 A1J       0.477000
     49 H62        301.4060   268.2900   291.7300 hn         1 A1J       0.477000
     50 HO3        299.1920   270.4660   282.5840 ho         1 A1J       0.476000
     51 OP3        300.6070   273.9290   288.3800 o          1 A1J      -0.924833
     52 H7         300.5650   271.6750   293.3900 h4         1 A1J       0.198000
     53 OP1        301.8390   275.4030   286.6790 o          1 A1J      -0.924833
     54 OP2        303.0920   273.5340   287.8870 o          1 A1J      -0.924833
     55 H6         303.8320   275.0450   295.0790 ha         1 A1J       0.086000
@<TRIPOS>BOND
     1     1     3 1   
     2     1     5 1   
     3     1     8 2   
     4     2    22 ar  
     5     2    23 ar  
     6     2    31 1   
     7     3     7 1   
     8     3    32 1   
     9     3    33 1   
    10     4     5 ar  
    11     4    23 ar  
    12     4    26 1   
    13     5     6 ar  
    14     6    22 ar  
    15     6    25 1   
    16     7    16 1   
    17     7    34 1   
    18     7    35 1   
    19     8    26 1   
    20     8    36 1   
    21     9    16 2   
    22     9    24 1   
    23     9    52 1   
    24    10    11 ar  
    25    10    15 ar  
    26    10    24 1   
    27    11    12 ar  
    28    11    55 1   
    29    12    13 ar  
    30    12    37 1   
    31    13    14 ar  
    32    13    38 1   
    33    14    15 ar  
    34    14    39 1   
    35    15    16 1   
    36    17    18 1   
    37    17    26 1   
    38    17    28 1   
    39    17    40 1   
    40    18    19 1   
    41    18    41 1   
    42    18    42 1   
    43    19    20 1   
    44    19    27 1   
    45    19    43 1   
    46    20    21 1   
    47    20    28 1   
    48    20    44 1   
    49    21    29 1   
    50    21    45 1   
    51    21    46 1   
    52    24    47 1   
    53    25    48 1   
    54    25    49 1   
    55    27    50 1   
    56    29    30 1   
    57    30    51 1   
    58    30    53 1   
    59    30    54 1   
@<TRIPOS>SUBSTRUCTURE
     1 A1J         1 TEMP              0 ****  ****    0 ROOT
