@<TRIPOS>MOLECULE
A1J
   20    21     1     0     0
SMALL
abcg2


@<TRIPOS>ATOM
      1 C2          -1.2550    -7.8090    23.2930 c          1 A1J       0.719600
      2 C7          -1.0320    -5.1040    19.9870 ca         1 A1J       0.394500
      3 C9          -0.2150    -6.8930    21.1560 ca         1 A1J       0.347900
      4 C10         -0.8980    -4.2320    18.8260 cc         1 A1J      -0.228500
      5 C11          0.0820    -4.2930    17.8530 cd         1 A1J      -0.146000
      6 C14         -1.7110    -3.1530    18.4160 cc         1 A1J       0.246900
      7 C4          -1.2020    -6.8210    22.1350 ca         1 A1J      -0.174600
      8 C5          -2.1390    -5.8040    21.9900 ca         1 A1J      -0.063000
      9 C6          -2.0590    -4.9370    20.9160 ca         1 A1J      -0.179000
     10 N12         -0.1870    -3.3130    16.9830 na         1 A1J      -0.020200
     11 N13         -1.2680    -2.6070    17.3010 nd         1 A1J      -0.556800
     12 N8          -0.1230    -6.0730    20.1180 nb         1 A1J      -0.717000
     13 O1          -0.3590    -8.6730    23.3210 o          1 A1J      -0.716500
     14 O3          -2.1920    -7.6620    24.1000 o          1 A1J      -0.716500
     15 H9           0.5450    -7.6650    21.2200 h4         1 A1J       0.030100
     16 H11          0.9260    -4.9520    17.7330 h4         1 A1J       0.165000
     17 H14         -2.5970    -2.7610    18.8930 h4         1 A1J       0.031100
     18 H5          -2.9320    -5.6910    22.7180 ha         1 A1J       0.130000
     19 H6          -2.7860    -4.1440    20.7990 ha         1 A1J       0.095000
     20 H12          0.3360    -3.0810    16.1530 hn         1 A1J       0.356000
@<TRIPOS>BOND
     1     1     7 1   
     2     1    13 1   
     3     1    14 1   
     4     2     4 1   
     5     2     9 ar  
     6     2    12 ar  
     7     3     7 ar  
     8     3    12 ar  
     9     3    15 1   
    10     4     5 2   
    11     4     6 1   
    12     5    10 1   
    13     5    16 1   
    14     6    11 2   
    15     6    17 1   
    16     7     8 ar  
    17     8     9 ar  
    18     8    18 1   
    19     9    19 1   
    20    10    11 1   
    21    10    20 1   
@<TRIPOS>SUBSTRUCTURE
     1 A1J         1 TEMP              0 ****  ****    0 ROOT
