@<TRIPOS>MOLECULE
A1J
   57    61     1     0     0
SMALL
abcg2


@<TRIPOS>ATOM
      1 C01         22.5150    40.3650    39.4620 c3         1 A1J       0.098300
      2 C03         22.2560    40.3110    42.0050 c6         1 A1J       0.102700
      3 C04         22.6550    41.6950    42.5400 c6         1 A1J      -0.082700
      4 C05         22.8570    41.5330    44.0470 c6         1 A1J      -0.107400
      5 C06         23.9510    40.4590    44.2640 c6         1 A1J       0.145800
      6 C07         23.9740    42.1760    41.9350 c6         1 A1J      -0.107400
      7 C08         25.0610    41.1270    42.2750 c6         1 A1J       0.145800
      8 C10         23.4760    39.3630    42.1610 c6         1 A1J       0.154500
      9 C11         23.0730    37.9770    42.6750 c3         1 A1J      -0.018100
     10 C12         22.1000    37.3210    41.7400 ca         1 A1J      -0.132300
     11 C13         20.7480    37.2250    42.0510 ca         1 A1J       0.340900
     12 C15         20.2280    36.2570    40.0590 ca         1 A1J       0.340900
     13 C16         21.5520    36.2850    39.6470 ca         1 A1J      -0.160000
     14 C17         22.4980    36.8270    40.5020 ca         1 A1J      -0.071000
     15 C18         20.3620    40.3880    40.4320 c          1 A1J       0.638100
     16 C20         18.2710    40.5500    41.4660 ca         1 A1J       0.115100
     17 C21         17.4890    39.4330    41.4830 ca         1 A1J      -0.092000
     18 C22         16.0810    39.5640    41.4510 ca         1 A1J      -0.029000
     19 C23         15.2310    38.4330    41.4720 ca         1 A1J      -0.092000
     20 C24         13.8710    38.5840    41.4430 ca         1 A1J      -0.110000
     21 C26         14.0940    40.9830    41.3690 ca         1 A1J      -0.099000
     22 C27         15.5020    40.8590    41.3970 ca         1 A1J      -0.037000
     23 C28         16.3550    41.9880    41.3770 ca         1 A1J      -0.092000
     24 C29         17.7130    41.8420    41.4090 ca         1 A1J      -0.107000
     25 N09         24.4980    39.9880    42.9950 n3         1 A1J      -0.681600
     26 C25         13.2960    39.8720    41.3920 ca         1 A1J      -0.105000
     27 N02         21.6870    40.3280    40.6560 n          1 A1J      -0.395800
     28 N14         19.8290    36.7130    41.2400 nb         1 A1J      -0.672000
     29 O19         19.6390    40.4360    41.5780 os         1 A1J      -0.371200
     30 O30         19.8410    40.4040    39.3380 o          1 A1J      -0.518000
     31 H011        22.2790    41.2310    38.8440 h1         1 A1J       0.043367
     32 H012        23.5620    40.4380    39.7330 h1         1 A1J       0.043367
     33 H013        22.3930    39.4650    38.8590 h1         1 A1J       0.043367
     34 H031        21.4700    39.9400    42.6620 h1         1 A1J       0.081700
     35 H041        21.8530    42.4080    42.3400 hc         1 A1J       0.070700
     36 H051        21.9200    41.2370    44.5240 hc         1 A1J       0.049450
     37 H052        23.1490    42.4900    44.4870 hc         1 A1J       0.049450
     38 H061        24.7780    40.8580    44.8550 h1         1 A1J       0.054950
     39 H062        23.5610    39.6100    44.8270 h1         1 A1J       0.054950
     40 H071        23.8850    42.3290    40.8580 hc         1 A1J       0.049450
     41 H072        24.2250    43.1510    42.3590 hc         1 A1J       0.049450
     42 H081        25.5460    40.7580    41.3680 h1         1 A1J       0.054950
     43 H082        25.8460    41.5640    42.8950 h1         1 A1J       0.054950
     44 H101        23.9510    39.1960    41.1910 h1         1 A1J       0.064700
     45 H111        23.9750    37.3690    42.7670 hc         1 A1J       0.059200
     46 H112        22.6270    38.0510    43.6700 hc         1 A1J       0.059200
     47 H131        20.3930    37.5910    43.0100 h4         1 A1J       0.017100
     48 H151        19.4600    35.8480    39.4110 h4         1 A1J       0.020100
     49 H161        21.8310    35.8950    38.6780 ha         1 A1J       0.124000
     50 H171        23.5410    36.8690    40.2070 ha         1 A1J       0.116000
     51 H211        17.9370    38.4460    41.5230 ha         1 A1J       0.147000
     52 H231        15.6730    37.4450    41.5120 ha         1 A1J       0.119000
     53 H241        13.2290    37.7130    41.4600 ha         1 A1J       0.113000
     54 H261        13.6550    41.9730    41.3300 ha         1 A1J       0.112000
     55 H281        15.9180    42.9780    41.3370 ha         1 A1J       0.115000
     56 H291        18.3640    42.7070    41.4030 ha         1 A1J       0.122000
     57 H251        12.2190    39.9760    41.3700 ha         1 A1J       0.112000
@<TRIPOS>BOND
     1     1    27 1   
     2     1    31 1   
     3     1    32 1   
     4     1    33 1   
     5     2     3 1   
     6     2     8 1   
     7     2    27 1   
     8     2    34 1   
     9     3     4 1   
    10     3     6 1   
    11     3    35 1   
    12     4     5 1   
    13     4    36 1   
    14     4    37 1   
    15     5    25 1   
    16     5    38 1   
    17     5    39 1   
    18     6     7 1   
    19     6    40 1   
    20     6    41 1   
    21     7    25 1   
    22     7    42 1   
    23     7    43 1   
    24     8     9 1   
    25     8    25 1   
    26     8    44 1   
    27     9    10 1   
    28     9    45 1   
    29     9    46 1   
    30    10    11 ar  
    31    10    14 ar  
    32    11    28 ar  
    33    11    47 1   
    34    12    13 ar  
    35    12    28 ar  
    36    12    48 1   
    37    13    14 ar  
    38    13    49 1   
    39    14    50 1   
    40    15    27 1   
    41    15    29 1   
    42    15    30 2   
    43    16    17 ar  
    44    16    24 ar  
    45    16    29 1   
    46    17    18 ar  
    47    17    51 1   
    48    18    19 ar  
    49    18    22 ar  
    50    19    20 ar  
    51    19    52 1   
    52    20    26 ar  
    53    20    53 1   
    54    21    22 ar  
    55    21    26 ar  
    56    21    54 1   
    57    22    23 ar  
    58    23    24 ar  
    59    23    55 1   
    60    24    56 1   
    61    26    57 1   
@<TRIPOS>SUBSTRUCTURE
     1 A1J         1 TEMP              0 ****  ****    0 ROOT
