@<TRIPOS>MOLECULE
A1J
   34    35     1     0     0
SMALL
abcg2


@<TRIPOS>ATOM
      1 N1          13.4910     7.7570    24.3470 n          1 A1J      -0.384800
      2 C4          14.6310     7.0800    24.9690 c5         1 A1J       0.347000
      3 C5          15.8270     7.9630    25.2110 ca         1 A1J      -0.126300
      4 C6          15.7430     9.3520    25.2040 ca         1 A1J      -0.035000
      5 C7          16.8690    10.1370    25.4340 ca         1 A1J      -0.143000
      6 C8          18.0980     9.5310    25.6660 ca         1 A1J      -0.083000
      7 C10         17.0720     7.3640    25.4470 ca         1 A1J       0.129100
      8 C13         14.6040     8.3310    20.8700 c3         1 A1J       0.102600
      9 C1          11.8320     9.5410    25.1020 c          1 A1J       0.731000
     10 O2          10.6060     9.6760    25.3330 o          1 A1J      -0.710000
     11 C2          12.3540     8.0790    25.2180 c5         1 A1J      -0.030300
     12 C3          12.8240     7.8190    26.6470 c5         1 A1J       0.094600
     13 S1          13.9400     6.3870    26.5350 ss         1 A1J      -0.531000
     14 C9          18.2020     8.1440    25.6710 ca         1 A1J      -0.221000
     15 O3          17.1200     5.9990    25.4470 oh         1 A1J      -0.542100
     16 C11         13.3350     7.8570    23.0070 c          1 A1J       0.608100
     17 O4          12.2720     8.2330    22.5140 o          1 A1J      -0.586100
     18 C12         14.5130     7.4730    22.1230 c3         1 A1J      -0.150400
     19 S2          15.1720    10.0200    21.3290 sh         1 A1J      -0.430800
     20 H1          14.9230     6.2160    24.3780 h2         1 A1J       0.073700
     21 H2          14.7820     9.8120    25.0070 ha         1 A1J       0.200000
     22 H3          16.7860    11.2170    25.4240 ha         1 A1J       0.119000
     23 H4          18.9820    10.1310    25.8400 ha         1 A1J       0.097000
     24 H5          13.6320     8.4070    20.3900 h1         1 A1J       0.058200
     25 H6          15.3210     7.8990    20.1760 h1         1 A1J       0.058200
     26 H8          11.5280     7.4100    24.9740 h1         1 A1J       0.061700
     27 H9          13.3700     8.6750    27.0440 h1         1 A1J       0.077200
     28 H10         11.9940     7.5810    27.3070 h1         1 A1J       0.077200
     29 H11         19.1570     7.6600    25.8460 ha         1 A1J       0.095000
     30 H12         18.0280     5.7020    25.5960 ho         1 A1J       0.449000
     31 H13         14.3590     6.4310    21.8210 hc         1 A1J       0.059700
     32 H14         15.4560     7.5090    22.6660 hc         1 A1J       0.059700
     33 H15         15.0380    10.5740    20.1120 hs         1 A1J       0.185800
     34 O1          12.6620    10.4440    24.8590 o          1 A1J      -0.710000
@<TRIPOS>BOND
     1     1     2 1   
     2     1    11 1   
     3     1    16 1   
     4     2     3 1   
     5     2    13 1   
     6     2    20 1   
     7     3     4 ar  
     8     3     7 ar  
     9     4     5 ar  
    10     4    21 1   
    11     5     6 ar  
    12     5    22 1   
    13     6    14 ar  
    14     6    23 1   
    15     7    14 ar  
    16     7    15 1   
    17     8    18 1   
    18     8    19 1   
    19     8    24 1   
    20     8    25 1   
    21     9    10 1   
    22     9    11 1   
    23     9    34 1   
    24    11    12 1   
    25    11    26 1   
    26    12    13 1   
    27    12    27 1   
    28    12    28 1   
    29    14    29 1   
    30    15    30 1   
    31    16    17 2   
    32    16    18 1   
    33    18    31 1   
    34    18    32 1   
    35    19    33 1   
@<TRIPOS>SUBSTRUCTURE
     1 A1J         1 TEMP              0 ****  ****    0 ROOT
