@<TRIPOS>MOLECULE
A1J
   59    63     1     0     0
SMALL
abcg2


@<TRIPOS>ATOM
      1 C1         -23.7800     4.8510   -23.5580 cc         1 A1J       0.527300
      2 C3         -24.9680     5.6570   -23.9680 c3         1 A1J      -0.091700
      3 O2         -19.6980     3.6740   -25.0090 o          1 A1J      -0.587100
      4 C13        -25.2020     4.6060   -26.2290 c6         1 A1J       0.072600
      5 C15        -18.1970     5.5160   -26.8030 cc         1 A1J       0.284300
      6 C19        -18.6240     5.7120   -25.4560 cc         1 A1J       0.172500
      7 C20        -19.3680     4.7670   -24.5830 c          1 A1J       0.535600
      8 C22        -20.4280     4.4190   -22.4240 c3         1 A1J       0.097400
      9 C23        -20.3290     4.9990   -21.0050 c6         1 A1J      -0.070700
     10 C24        -18.8860     4.9460   -20.4940 c6         1 A1J      -0.072400
     11 C25        -18.7730     5.4830   -19.0710 c6         1 A1J      -0.073400
     12 C26        -19.7000     4.7370   -18.1190 c6         1 A1J      -0.076400
     13 C27        -21.1380     4.7860   -18.6200 c6         1 A1J      -0.073400
     14 C28        -21.2570     4.2550   -20.0440 c6         1 A1J      -0.072400
     15 C29        -21.8460     4.3730   -22.9040 cd         1 A1J       0.401800
     16 C4         -25.9180     4.9430   -24.9250 c6         1 A1J      -0.074700
     17 C5         -27.1490     5.7960   -25.2140 c6         1 A1J      -0.082400
     18 C6         -28.1560     5.0120   -26.0460 c6         1 A1J      -0.103700
     19 C7         -27.4920     4.3580   -27.2070 cc         1 A1J       0.418800
     20 N8         -28.0710     3.8880   -28.2860 nd         1 A1J      -0.678000
     21 C9         -27.0750     3.3680   -29.0560 cd         1 A1J       0.279900
     22 C10        -25.8810     3.5330   -28.4200 cc         1 A1J      -0.167900
     23 BR11       -24.1670     3.0640   -28.9470 br         1 A1J      -0.036100
     24 N12        -26.1520     4.1620   -27.2350 na         1 A1J      -0.143500
     25 N16        -17.5990     6.6050   -27.1690 nd         1 A1J      -0.344300
     26 O17        -17.6430     7.4450   -26.1200 os         1 A1J       0.120600
     27 N18        -18.2640     6.8980   -25.0840 nd         1 A1J      -0.320300
     28 N21        -19.6270     5.2010   -23.3430 ns         1 A1J      -0.474900
     29 N30        -22.5940     5.4080   -23.2190 nc         1 A1J      -0.701000
     30 N31        -23.7940     3.5400   -23.4680 nd         1 A1J      -0.530800
     31 N32        -22.5560     3.2570   -23.0550 na         1 A1J      -0.172700
     32 H1         -25.5260     5.9440   -23.0720 hc         1 A1J       0.067200
     33 H2         -24.6170     6.5900   -24.4170 hc         1 A1J       0.067200
     34 H3         -24.6740     5.4870   -26.6050 h1         1 A1J       0.070200
     35 H4         -24.4660     3.8190   -26.0690 h1         1 A1J       0.070200
     36 H5         -17.9070     4.5470   -28.6680 hc         1 A1J       0.069700
     37 H6         -17.8720     3.4670   -27.2670 hc         1 A1J       0.069700
     38 H7         -19.4060     4.1060   -27.8370 hc         1 A1J       0.069700
     39 H8         -20.0380     3.3960   -22.4000 h1         1 A1J       0.074700
     40 H9         -20.6520     6.0480   -21.0480 hc         1 A1J       0.071700
     41 H10        -18.5440     3.9050   -20.5190 hc         1 A1J       0.042700
     42 H11        -18.2200     5.5090   -21.1510 hc         1 A1J       0.042700
     43 H12        -17.7370     5.4090   -18.7330 hc         1 A1J       0.044200
     44 H13        -19.0260     6.5480   -19.0650 hc         1 A1J       0.044200
     45 H14        -19.3760     3.6940   -18.0400 hc         1 A1J       0.042200
     46 H15        -19.6330     5.1610   -17.1140 hc         1 A1J       0.042200
     47 H16        -21.7930     4.2130   -17.9600 hc         1 A1J       0.044200
     48 H17        -21.4960     5.8210   -18.5910 hc         1 A1J       0.044200
     49 H18        -22.2960     4.3370   -20.3710 hc         1 A1J       0.042700
     50 H19        -21.0070     3.1870   -20.0600 hc         1 A1J       0.042700
     51 H20        -26.2480     4.0080   -24.4590 hc         1 A1J       0.077700
     52 H21        -27.6150     6.1110   -24.2790 hc         1 A1J       0.052200
     53 H22        -26.8470     6.7060   -25.7420 hc         1 A1J       0.052200
     54 H23        -28.6260     4.2450   -25.4220 hc         1 A1J       0.070200
     55 H24        -28.9600     5.6540   -26.4080 hc         1 A1J       0.070200
     56 H25        -27.2560     2.9080   -30.0150 h4         1 A1J       0.047100
     57 H26        -19.4040     6.1540   -23.0940 hn         1 A1J       0.347500
     58 H27        -22.2630     2.3020   -22.9100 hn         1 A1J       0.385000
     59 C14        -18.3530     4.3440   -27.6970 c3         1 A1J      -0.130400
@<TRIPOS>BOND
     1     1     2 1   
     2     1    29 1   
     3     1    30 2   
     4     2    16 1   
     5     2    32 1   
     6     2    33 1   
     7     3     7 2   
     8     4    16 1   
     9     4    24 1   
    10     4    34 1   
    11     4    35 1   
    12     5     6 1   
    13     5    25 2   
    14     5    59 1   
    15     6     7 1   
    16     6    27 2   
    17     7    28 1   
    18     8     9 1   
    19     8    15 1   
    20     8    28 1   
    21     8    39 1   
    22     9    10 1   
    23     9    14 1   
    24     9    40 1   
    25    10    11 1   
    26    10    41 1   
    27    10    42 1   
    28    11    12 1   
    29    11    43 1   
    30    11    44 1   
    31    12    13 1   
    32    12    45 1   
    33    12    46 1   
    34    13    14 1   
    35    13    47 1   
    36    13    48 1   
    37    14    49 1   
    38    14    50 1   
    39    15    29 2   
    40    15    31 1   
    41    16    17 1   
    42    16    51 1   
    43    17    18 1   
    44    17    52 1   
    45    17    53 1   
    46    18    19 1   
    47    18    54 1   
    48    18    55 1   
    49    19    20 2   
    50    19    24 1   
    51    20    21 1   
    52    21    22 2   
    53    21    56 1   
    54    22    23 1   
    55    22    24 1   
    56    25    26 1   
    57    26    27 1   
    58    28    57 1   
    59    30    31 1   
    60    31    58 1   
    61    36    59 1   
    62    37    59 1   
    63    38    59 1   
@<TRIPOS>SUBSTRUCTURE
     1 A1J         1 TEMP              0 ****  ****    0 ROOT
