@<TRIPOS>MOLECULE
A1J
   65    70     1     0     0
SMALL
abcg2


@<TRIPOS>ATOM
      1 P02        -13.2830    -4.4870    13.1080 c5         1 A1J      -0.603400
      2 P03        -12.7200    -5.4360    14.1660 c5         1 A1J      -0.727400
      3 P04        -11.2460    -5.5620    13.7920 c5         1 A1J      -0.840600
      4 P06        -12.5570    -4.9240    11.8350 c5         1 A1J      -0.846600
      5 P09         -8.9590    -6.1200    12.1110 ca         1 A1J      -0.132000
      6 P10         -7.8990    -5.2240    12.2780 ca         1 A1J       0.001000
      7 P11         -8.0190    -3.7840    11.8800 c3         1 A1J      -1.014600
      8 P12         -6.7190    -5.7100    12.8410 ca         1 A1J      -0.413200
      9 P13         -6.6630    -7.0410    13.2120 ca         1 A1J      -0.091000
     10 P15         -8.8000    -7.4570    12.5080 cp         1 A1J       0.057000
     11 P16         -9.8950    -8.4530    12.4270 cp         1 A1J       0.014000
     12 P17        -10.7720    -8.5350    11.3500 ca         1 A1J      -0.425200
     13 P18        -11.8260    -9.4520    11.3720 ca         1 A1J      -0.344200
     14 P20        -11.2380   -10.2220    13.4310 ca         1 A1J      -0.020000
     15 P21        -10.1210    -9.3520    13.4760 ca         1 A1J      -0.574200
     16 P23        -10.3890   -10.7290    15.5310 cc         1 A1J      -0.613200
     17 P24        -11.3640   -10.9980    14.6300 cd         1 A1J      -0.373200
     18 P25        -10.2570   -11.2880    16.9150 c3         1 A1J      -0.773600
     19 P27        -12.0800   -10.2630    18.3060 c          1 A1J       0.067800
     20 P29        -12.2190    -9.0860    19.2060 cx         1 A1J      -0.474700
     21 P30        -10.8320    -8.4970    19.3280 cx         1 A1J      -0.474700
     22 P31         -9.9500    -9.3610    18.4990 c          1 A1J       0.067800
     23 P33        -11.9210    -7.7240    18.6020 cx         1 A1J      -0.037000
     24 P34        -11.8960    -7.4870    17.1100 c3         1 A1J      -1.020100
     25 P35        -12.4800    -6.5540    19.3820 c3         1 A1J      -1.020100
     26 P36         -5.4320    -7.6380    13.8600 c3         1 A1J      -0.328600
     27 P37         -4.4260    -6.7500    13.9610 f          1 A1J       0.124867
     28 P38         -4.9650    -8.6940    13.1630 f          1 A1J       0.124867
     29 P39         -5.6950    -8.0830    15.1080 f          1 A1J       0.124867
     30 P01        -14.7340    -4.5910    12.9690 n8         1 A1J      -0.038800
     31 P05        -11.2600    -5.4010    12.3240 n3         1 A1J       0.498600
     32 P14         -7.6650    -7.8950    13.0570 nb         1 A1J      -0.110000
     33 P19        -12.0800   -10.2720    12.3860 nb         1 A1J      -0.093000
     34 P26        -10.7440   -10.3450    17.9170 n3         1 A1J       0.466600
     35 P08        -10.2960    -5.4260    10.2750 o          1 A1J      -0.364000
     36 P32         -8.7520    -9.2650    18.3260 o          1 A1J      -0.289000
     37 P22         -9.2400    -9.5380    14.9600 ss         1 A1J       1.039400
     38 P1         -12.9590    -3.4660    13.3520 hp         1 A1J       0.340200
     39 P2         -12.8560    -5.0690    15.1820 hp         1 A1J       0.381700
     40 P3         -13.2160    -6.4050    14.0780 hp         1 A1J       0.381700
     41 P4         -10.8280    -6.5230    14.0800 hp         1 A1J       0.369200
     42 P5         -10.6430    -4.7720    14.2450 hp         1 A1J       0.369200
     43 P6         -12.4200    -4.1200    11.1140 hp         1 A1J       0.384700
     44 P7         -13.0980    -5.7410    11.3480 hp         1 A1J       0.384700
     45 P8          -8.9690    -3.3620    12.2130 hp         1 A1J       0.375867
     46 P9          -7.2050    -3.1970    12.3010 hp         1 A1J       0.375867
     47 P10         -7.9870    -3.6900    10.7920 hp         1 A1J       0.375867
     48 P11         -5.8770    -5.0520    12.9980 hp         1 A1J       0.440200
     49 P12        -10.6460    -7.8980    10.4870 hp         1 A1J       0.439200
     50 P13        -12.4990    -9.5070    10.5230 hp         1 A1J       0.441200
     51 P14        -12.1620   -11.7080    14.7990 hp         1 A1J       0.452200
     52 P15        -10.8480   -12.1970    17.0010 hp         1 A1J       0.398700
     53 P16         -9.2210   -11.5170    17.1580 hp         1 A1J       0.398700
     54 P17        -12.9110    -9.1610    20.0320 hp         1 A1J       0.442200
     55 P18        -10.4300    -8.1040    20.2510 hp         1 A1J       0.442200
     56 P19        -11.2660    -6.6240    16.8860 hp         1 A1J       0.364367
     57 P20        -11.5220    -8.3300    16.5340 hp         1 A1J       0.364367
     58 P21        -12.9050    -7.2650    16.7600 hp         1 A1J       0.364367
     59 P22        -12.4820    -6.7490    20.4550 hp         1 A1J       0.364367
     60 P23        -11.8810    -5.6600    19.1940 hp         1 A1J       0.364367
     61 P24        -13.5050    -6.3490    19.0640 hp         1 A1J       0.364367
     62 P25        -15.1760    -4.3120    13.8390 hp         1 A1J       0.142000
     63 P26        -15.0600    -3.9310    12.2690 hp         1 A1J       0.142000
     64 P07        -10.2390    -5.6200    11.4950 c          1 A1J       0.079800
     65 P28        -12.9390   -11.0400    17.9470 o          1 A1J      -0.289000
@<TRIPOS>BOND
     1     1     2 1   
     2     1     4 1   
     3     1    30 1   
     4     1    38 1   
     5     2     3 1   
     6     2    39 1   
     7     2    40 1   
     8     3    31 1   
     9     3    41 1   
    10     3    42 1   
    11     4    31 1   
    12     4    43 1   
    13     4    44 1   
    14     5     6 ar  
    15     5    10 ar  
    16     5    64 1   
    17     6     7 1   
    18     6     8 ar  
    19     7    45 1   
    20     7    46 1   
    21     7    47 1   
    22     8     9 ar  
    23     8    48 1   
    24     9    26 1   
    25     9    32 ar  
    26    10    11 1   
    27    10    32 ar  
    28    11    12 ar  
    29    11    15 ar  
    30    12    13 ar  
    31    12    49 1   
    32    13    33 ar  
    33    13    50 1   
    34    14    15 ar  
    35    14    17 1   
    36    14    33 ar  
    37    15    37 1   
    38    16    17 2   
    39    16    18 1   
    40    16    37 1   
    41    17    51 1   
    42    18    34 1   
    43    18    52 1   
    44    18    53 1   
    45    19    20 1   
    46    19    34 1   
    47    19    65 2   
    48    20    21 1   
    49    20    23 1   
    50    20    54 1   
    51    21    22 1   
    52    21    23 1   
    53    21    55 1   
    54    22    34 1   
    55    22    36 2   
    56    23    24 1   
    57    23    25 1   
    58    24    56 1   
    59    24    57 1   
    60    24    58 1   
    61    25    59 1   
    62    25    60 1   
    63    25    61 1   
    64    26    27 1   
    65    26    28 1   
    66    26    29 1   
    67    30    62 1   
    68    30    63 1   
    69    31    64 1   
    70    35    64 2   
@<TRIPOS>SUBSTRUCTURE
     1 A1J         1 TEMP              0 ****  ****    0 ROOT
