@<TRIPOS>MOLECULE
A1J
   30    32     1     0     0
SMALL
abcg2


@<TRIPOS>ATOM
      1 O1           2.8880     7.5920   -49.2670 o          1 A1J      -0.707500
      2 C1           3.7760     6.7100   -49.3310 c          1 A1J       0.734600
      3 O2           3.6870     5.5770   -49.8610 o          1 A1J      -0.707500
      4 C2           5.0950     7.0530   -48.6630 cc         1 A1J      -0.098600
      5 C3           5.5930     6.4800   -47.5450 cd         1 A1J       0.077900
      6 O3           6.7760     7.0980   -47.1560 os         1 A1J      -0.276000
      7 C4           7.0260     8.0650   -48.0540 cd         1 A1J       0.138300
      8 C5           6.0420     8.0960   -49.0080 cc         1 A1J      -0.219600
      9 C6           6.1400     8.9880   -50.1490 c          1 A1J       0.608700
     10 C7           7.3710     9.8840   -50.1800 c6         1 A1J      -0.179400
     11 C8           7.9630    10.1910   -48.7910 c6         1 A1J      -0.019400
     12 C9           9.1530    11.1270   -48.8470 ca         1 A1J      -0.013300
     13 C10          9.0710    12.4140   -48.2870 ca         1 A1J       0.120000
     14 CL1          7.5920    12.9680   -47.5170 cl         1 A1J      -0.200000
     15 C11         10.1200    13.3230   -48.3020 ca         1 A1J      -0.098000
     16 C12         11.3220    12.9640   -48.8900 ca         1 A1J      -0.113000
     17 C13         11.4600    11.7080   -49.4600 ca         1 A1J      -0.093000
     18 C14         10.3910    10.8220   -49.4340 ca         1 A1J       0.000100
     19 BR1         10.7350     9.1280   -50.2820 br         1 A1J      -0.097100
     20 C15          8.2230     8.9250   -47.9470 c6         1 A1J      -0.096700
     21 O4           5.3380     9.0030   -51.0750 o          1 A1J      -0.503100
     22 H1           5.2540     5.6860   -46.9030 h4         1 A1J       0.044100
     23 H2           8.0970     9.3800   -50.8210 hc         1 A1J       0.065200
     24 H3           7.0960    10.8140   -50.6790 hc         1 A1J       0.065200
     25 H4           7.1800    10.7260   -48.2600 hc         1 A1J       0.078700
     26 H5           9.9900    14.2990   -47.8550 ha         1 A1J       0.128000
     27 H6          12.1490    13.6620   -48.9070 ha         1 A1J       0.116000
     28 H7          12.3910    11.4150   -49.9230 ha         1 A1J       0.128000
     29 H9           9.1050     8.3790   -48.2860 hc         1 A1J       0.058200
     30 H8           8.3960     9.2050   -46.9060 hc         1 A1J       0.058200
@<TRIPOS>BOND
     1     1     2 1   
     2     2     3 1   
     3     2     4 1   
     4     4     5 2   
     5     4     8 1   
     6     5     6 1   
     7     5    22 1   
     8     6     7 1   
     9     7     8 2   
    10     7    20 1   
    11     8     9 1   
    12     9    10 1   
    13     9    21 2   
    14    10    11 1   
    15    10    23 1   
    16    10    24 1   
    17    11    12 1   
    18    11    20 1   
    19    11    25 1   
    20    12    13 ar  
    21    12    18 ar  
    22    13    14 1   
    23    13    15 ar  
    24    15    16 ar  
    25    15    26 1   
    26    16    17 ar  
    27    16    27 1   
    28    17    18 ar  
    29    17    28 1   
    30    18    19 1   
    31    20    29 1   
    32    20    30 1   
@<TRIPOS>SUBSTRUCTURE
     1 A1J         1 TEMP              0 ****  ****    0 ROOT
