@<TRIPOS>MOLECULE
A1J
   51    55     1     0     0
SMALL
abcg2


@<TRIPOS>ATOM
      1 C1          25.0820    86.0250    10.4950 c1         1 A1J      -0.106100
      2 C2          25.4230    86.9530    11.1790 c1         1 A1J      -0.186100
      3 C3          25.8880    88.1030    11.9560 c3         1 A1J       0.201100
      4 C7          28.2450    88.6470    11.5060 c          1 A1J       0.551000
      5 C8          29.5670    88.2780     9.4300 ca         1 A1J      -0.089300
      6 C9          28.8890    87.3640     8.6380 ca         1 A1J      -0.066000
      7 C10         29.6350    86.4880     7.8530 ca         1 A1J      -0.129000
      8 C11         31.0220    86.5480     7.8890 ca         1 A1J       0.163000
      9 C12         31.7220    87.4390     8.6820 ca         1 A1J      -0.075000
     10 C13         30.9560    88.3010     9.4520 ca         1 A1J      -0.119600
     11 C14         31.4010    89.3680    10.3790 c          1 A1J       0.587600
     12 C16         30.4500    92.3840    11.1020 cc         1 A1J      -0.078300
     13 C19         30.5880    94.6180    10.9810 ca         1 A1J      -0.115200
     14 C20         30.6160    95.9930    11.1940 ca         1 A1J      -0.088000
     15 C21         30.8450    96.7530    10.0750 ca         1 A1J       0.073000
     16 C22         31.0370    96.1930     8.7910 ca         1 A1J       0.539900
     17 F1          31.7200    85.6910     7.1060 f          1 A1J      -0.175000
     18 O1          32.5450    89.6850    10.6780 o          1 A1J      -0.514000
     19 N1          30.2620    89.9590    10.8460 n          1 A1J      -0.400800
     20 C6          29.0350    89.3410    10.3660 c5         1 A1J       0.088700
     21 C5          27.9950    90.2910     9.7510 c5         1 A1J      -0.091400
     22 C4          26.6520    89.6200    10.0600 c5         1 A1J       0.099000
     23 O           28.7440    88.0180    12.4280 o          1 A1J      -0.519000
     24 N           26.9360    88.8340    11.2580 n          1 A1J      -0.416800
     25 C           24.6720    84.9010     9.6640 c3         1 A1J      -0.011000
     26 N2          30.3920    93.5510    11.8270 na         1 A1J      -0.220700
     27 F           30.8880    98.1110    10.1810 f          1 A1J      -0.184000
     28 N4          31.3290    97.0170     7.7180 nv         1 A1J      -1.031900
     29 N3          30.9960    94.8800     8.6010 nb         1 A1J      -0.683000
     30 C18         30.7780    94.0980     9.6780 ca         1 A1J       0.372800
     31 C17         30.6840    92.6750     9.7800 cd         1 A1J      -0.333800
     32 H1          26.2940    87.7810    12.9150 h1         1 A1J       0.078200
     33 H2          25.0620    88.7900    12.1570 h1         1 A1J       0.078200
     34 H3          27.8090    87.3130     8.6160 ha         1 A1J       0.127000
     35 H4          29.1520    85.7620     7.2140 ha         1 A1J       0.136000
     36 H5          32.8030    87.4590     8.6920 ha         1 A1J       0.157000
     37 H6          29.3630    91.0460    12.3670 h1         1 A1J       0.072200
     38 H7          31.1080    90.8960    12.4830 h1         1 A1J       0.072200
     39 H8          30.4700    96.4530    12.1630 ha         1 A1J       0.136000
     40 H9          28.1550    90.4470     8.6880 hc         1 A1J       0.076700
     41 H10         28.0470    91.2550    10.2540 hc         1 A1J       0.076700
     42 H11         25.8630    90.3430    10.2690 h1         1 A1J       0.054200
     43 H12         26.3150    88.9700     9.2500 h1         1 A1J       0.054200
     44 H13         25.2080    84.9120     8.7130 hc         1 A1J       0.055367
     45 H14         24.8820    83.9500    10.1590 hc         1 A1J       0.055367
     46 H15         23.6020    84.9430     9.4490 hc         1 A1J       0.055367
     47 H16         30.2230    93.6110    12.8190 hn         1 A1J       0.353000
     48 H17         31.1520    96.5930     6.8180 hn         1 A1J       0.464000
     49 H18         30.9880    97.9640     7.7850 hn         1 A1J       0.464000
     50 H19         30.7760    91.9600     8.9800 ha         1 A1J       0.219000
     51 C15         30.2850    91.0590    11.7820 c3         1 A1J       0.174200
@<TRIPOS>BOND
     1     1     2 3   
     2     1    25 1   
     3     2     3 1   
     4     3    24 1   
     5     3    32 1   
     6     3    33 1   
     7     4    20 1   
     8     4    23 2   
     9     4    24 1   
    10     5     6 ar  
    11     5    10 ar  
    12     5    20 1   
    13     6     7 ar  
    14     6    34 1   
    15     7     8 ar  
    16     7    35 1   
    17     8     9 ar  
    18     8    17 1   
    19     9    10 ar  
    20     9    36 1   
    21    10    11 1   
    22    11    18 2   
    23    11    19 1   
    24    12    26 1   
    25    12    31 2   
    26    12    51 1   
    27    13    14 ar  
    28    13    26 1   
    29    13    30 ar  
    30    14    15 ar  
    31    14    39 1   
    32    15    16 ar  
    33    15    27 1   
    34    16    28 1   
    35    16    29 ar  
    36    19    20 1   
    37    19    51 1   
    38    20    21 1   
    39    21    22 1   
    40    21    40 1   
    41    21    41 1   
    42    22    24 1   
    43    22    42 1   
    44    22    43 1   
    45    25    44 1   
    46    25    45 1   
    47    25    46 1   
    48    26    47 1   
    49    28    48 1   
    50    28    49 1   
    51    29    30 ar  
    52    30    31 1   
    53    31    50 1   
    54    37    51 1   
    55    38    51 1   
@<TRIPOS>SUBSTRUCTURE
     1 A1J         1 TEMP              0 ****  ****    0 ROOT
