@<TRIPOS>MOLECULE
A1J
   35    37     1     0     0
SMALL
abcg2


@<TRIPOS>ATOM
      1 C4         -14.7480    15.4120    27.2640 cc         1 A1J      -0.174600
      2 C5         -15.8240    16.0580    27.7920 cd         1 A1J       0.121900
      3 C7         -14.7590    15.1730    29.4960 cd         1 A1J       0.062300
      4 C8         -14.0540    14.8280    28.3920 cc         1 A1J      -0.104300
      5 C10        -12.7310    13.3270    29.8740 c6         1 A1J      -0.073400
      6 C13        -12.3930    14.7180    33.4220 ca         1 A1J       0.132100
      7 C15        -12.0510    17.0010    34.0750 c3         1 A1J       0.150900
      8 C17        -12.2100    12.9040    35.0020 ca         1 A1J      -0.089000
      9 C20        -14.4710    14.8390    30.9130 c6         1 A1J      -0.077700
     10 O1         -15.2300    15.8460    24.9930 o          1 A1J      -0.730500
     11 C2         -14.3910    15.3650    25.8020 c          1 A1J       0.725600
     12 O3         -13.2800    14.8560    25.5000 o          1 A1J      -0.730500
     13 O6         -15.8510    15.9310    29.1530 os         1 A1J      -0.289000
     14 C9         -12.8220    13.9820    28.4880 c6         1 A1J       0.005900
     15 C11        -13.0110    14.3310    31.0030 c6         1 A1J      -0.016400
     16 C12        -12.7160    13.8120    32.3920 ca         1 A1J      -0.081300
     17 O14        -12.3470    16.0350    33.0700 os         1 A1J      -0.341100
     18 C16        -12.1390    14.2650    34.7160 ca         1 A1J      -0.200000
     19 C18        -12.5320    11.9970    34.0040 ca         1 A1J      -0.151000
     20 C19        -12.7800    12.4610    32.7130 ca         1 A1J      -0.078000
     21 H1         -16.6200    16.6330    27.3530 h4         1 A1J       0.047100
     22 H2         -13.4540    12.5080    29.9260 hc         1 A1J       0.029700
     23 H3         -11.7410    12.8880    30.0100 hc         1 A1J       0.029700
     24 H4         -12.0770    17.9660    33.5750 h1         1 A1J       0.036700
     25 H5         -12.7980    16.9800    34.8730 h1         1 A1J       0.036700
     26 H6         -11.0590    16.8370    34.5020 h1         1 A1J       0.036700
     27 H7         -12.0120    12.5630    36.0110 ha         1 A1J       0.101000
     28 H8         -14.6050    15.7110    31.5570 hc         1 A1J       0.043200
     29 H9         -15.1510    14.0620    31.2790 hc         1 A1J       0.043200
     30 H11        -12.8250    13.2170    27.7110 hc         1 A1J       0.063700
     31 H12        -11.9330    14.5950    28.3040 hc         1 A1J       0.063700
     32 H13        -12.3670    15.1980    30.8320 hc         1 A1J       0.072700
     33 H14        -11.8860    14.9620    35.5020 ha         1 A1J       0.107000
     34 H15        -12.5890    10.9380    34.2200 ha         1 A1J       0.107000
     35 H16        -13.0290    11.7470    31.9390 ha         1 A1J       0.120000
@<TRIPOS>BOND
     1     1     2 2   
     2     1     4 1   
     3     1    11 1   
     4     2    13 1   
     5     2    21 1   
     6     3     4 2   
     7     3     9 1   
     8     3    13 1   
     9     4    14 1   
    10     5    14 1   
    11     5    15 1   
    12     5    22 1   
    13     5    23 1   
    14     6    16 ar  
    15     6    17 1   
    16     6    18 ar  
    17     7    17 1   
    18     7    24 1   
    19     7    25 1   
    20     7    26 1   
    21     8    18 ar  
    22     8    19 ar  
    23     8    27 1   
    24     9    15 1   
    25     9    28 1   
    26     9    29 1   
    27    10    11 1   
    28    11    12 1   
    29    14    30 1   
    30    14    31 1   
    31    15    16 1   
    32    15    32 1   
    33    16    20 ar  
    34    18    33 1   
    35    19    20 ar  
    36    19    34 1   
    37    20    35 1   
@<TRIPOS>SUBSTRUCTURE
     1 A1J         1 TEMP              0 ****  ****    0 ROOT
