@<TRIPOS>MOLECULE
A1J
   30    32     1     0     0
SMALL
abcg2


@<TRIPOS>ATOM
      1 N1          -8.9350     3.0920   -11.5810 nb         1 A1J      -0.664000
      2 C4         -12.2840     3.4440    -8.9490 cc         1 A1J       0.060300
      3 C5         -11.8390     3.3260    -7.6750 cd         1 A1J      -0.102300
      4 C6         -10.4830     2.7670    -7.3720 c6         1 A1J       0.004900
      5 C7          -9.6230     2.7330    -8.6430 c6         1 A1J      -0.069400
      6 C8         -10.3900     2.1740    -9.8580 c6         1 A1J      -0.114000
      7 C10         -9.2090     0.7190   -11.5540 ca         1 A1J      -0.162000
      8 C13         -8.1140     2.9570   -12.6250 ca         1 A1J       0.334900
      9 O1         -11.9640     3.4370    -4.6910 o          1 A1J      -0.730000
     10 O2         -13.9300     4.5130    -4.8130 o          1 A1J      -0.730000
     11 C2         -12.8930     3.8340    -6.8240 cd         1 A1J      -0.175600
     12 C3         -13.8890     4.2220    -7.6680 cc         1 A1J       0.122900
     13 O3         -13.5430     3.9900    -8.9700 os         1 A1J      -0.289000
     14 C9          -9.4800     1.9900   -11.0470 ca         1 A1J       0.367300
     15 C11         -8.3540     0.5870   -12.6390 ca         1 A1J      -0.078000
     16 C12         -7.7900     1.7300   -13.1910 ca         1 A1J      -0.183000
     17 C14        -11.5950     3.0740   -10.2080 c6         1 A1J      -0.077700
     18 H1         -10.5790     1.7580    -6.9570 hc         1 A1J       0.063700
     19 H2          -9.9900     3.3600    -6.6010 hc         1 A1J       0.063700
     20 H3          -8.7320     2.1260    -8.4690 hc         1 A1J       0.038200
     21 H4          -9.2830     3.7430    -8.8850 hc         1 A1J       0.038200
     22 H5         -10.7780     1.1890    -9.5830 hc         1 A1J       0.052700
     23 H6          -9.6670    -0.1490   -11.0990 ha         1 A1J       0.123000
     24 H7          -7.6950     3.8730   -13.0280 h4         1 A1J       0.011100
     25 H9         -14.8610     4.6530    -7.5040 h4         1 A1J       0.047100
     26 H10         -8.1310    -0.3910   -13.0470 ha         1 A1J       0.109000
     27 H11         -7.1180     1.6790   -14.0370 ha         1 A1J       0.112000
     28 H12        -11.2410     3.9640   -10.7380 hc         1 A1J       0.048700
     29 H13        -12.2720     2.5450   -10.8850 hc         1 A1J       0.048700
     30 C1         -12.9320     3.9360    -5.3220 c          1 A1J       0.726600
@<TRIPOS>BOND
     1     1     8 ar  
     2     1    14 ar  
     3     2     3 2   
     4     2    13 1   
     5     2    17 1   
     6     3     4 1   
     7     3    11 1   
     8     4     5 1   
     9     4    18 1   
    10     4    19 1   
    11     5     6 1   
    12     5    20 1   
    13     5    21 1   
    14     6    14 1   
    15     6    17 1   
    16     6    22 1   
    17     7    14 ar  
    18     7    15 ar  
    19     7    23 1   
    20     8    16 ar  
    21     8    24 1   
    22     9    30 1   
    23    10    30 1   
    24    11    12 2   
    25    11    30 1   
    26    12    13 1   
    27    12    25 1   
    28    15    16 ar  
    29    15    26 1   
    30    16    27 1   
    31    17    28 1   
    32    17    29 1   
@<TRIPOS>SUBSTRUCTURE
     1 A1J         1 TEMP              0 ****  ****    0 ROOT
