@<TRIPOS>MOLECULE
A1J
   58    57     1     0     0
SMALL
abcg2


@<TRIPOS>ATOM
      1 C4         -16.4190    13.1020    22.8390 c3         1 A1J      -0.051850
      2 C5         -15.1370    13.6440    24.8940 c3         1 A1J      -0.051850
      3 C6         -13.9710    13.4720    22.6660 c3         1 A1J      -0.039400
      4 C7         -12.5400    13.3760    23.2180 c3         1 A1J      -0.069900
      5 C8         -12.0190    14.6670    23.8410 c3         1 A1J      -0.071900
      6 C10        -10.0640    15.8540    24.9410 c3         1 A1J      -0.089400
      7 C13         -8.0880    17.1850    25.8210 c3         1 A1J      -0.089400
      8 C15         -8.0960    18.8310    27.7450 c3         1 A1J      -0.071900
      9 C17         -9.9030    19.1740    29.5230 c3         1 A1J      -0.039400
     10 C20        -11.7960    19.4450    31.1090 c3         1 A1J      -0.051850
     11 C21         -9.6880    18.3200    31.8850 c          1 A1J       0.721500
     12 C11         -8.5620    15.8660    25.2220 c3         1 A1J       0.180300
     13 C14         -8.5990    17.4880    27.2260 c3         1 A1J      -0.077400
     14 C16         -8.4110    19.0850    29.2180 c3         1 A1J      -0.069900
     15 C18        -10.2680    19.4550    30.9920 c3         1 A1J      -0.182000
     16 C19         -9.7670    20.8340    31.4150 c3         1 A1J      -0.051850
     17 C2         -14.8510    11.3740    23.7510 c          1 A1J       0.721500
     18 C3         -15.0820    12.9020    23.5630 c3         1 A1J      -0.182000
     19 C9         -10.5690    14.5660    24.2990 c3         1 A1J      -0.077400
     20 O1         -14.7550    10.9320    24.9150 o          1 A1J      -0.736500
     21 O12         -8.1660    14.8290    26.1010 oh         1 A1J      -0.657000
     22 O22        -10.0790    17.1620    31.6280 o          1 A1J      -0.736500
     23 O23         -8.8800    18.6400    32.7810 o          1 A1J      -0.736500
     24 O24        -14.7830    10.6950    22.7040 o          1 A1J      -0.736500
     25 H4C        -17.2520    12.6950    23.4180 hc         1 A1J       0.010700
     26 H4B        -16.6200    14.1650    22.6800 hc         1 A1J       0.010700
     27 H4A        -16.4190    12.6130    21.8650 hc         1 A1J       0.010700
     28 H5C        -14.2280    13.5180    25.4830 hc         1 A1J       0.010700
     29 H5A        -15.2760    14.7170    24.7300 hc         1 A1J       0.010700
     30 H5B        -15.9700    13.2960    25.5070 hc         1 A1J       0.010700
     31 H6B        -14.0240    12.9540    21.7070 hc         1 A1J       0.019950
     32 H6A        -14.2000    14.5230    22.4520 hc         1 A1J       0.019950
     33 H7A        -12.4650    12.5670    23.9520 hc         1 A1J       0.042700
     34 H7B        -11.8600    13.0950    22.4070 hc         1 A1J       0.042700
     35 H8A        -12.1060    15.4780    23.1090 hc         1 A1J       0.021700
     36 H8B        -12.6470    14.9590    24.6880 hc         1 A1J       0.021700
     37 H10A       -10.2800    16.6920    24.2680 hc         1 A1J       0.038700
     38 H10B       -10.6240    16.0460    25.8610 hc         1 A1J       0.038700
     39 H13A        -6.9930    17.1940    25.8310 hc         1 A1J       0.038700
     40 H13B        -8.3880    17.9900    25.1420 hc         1 A1J       0.038700
     41 H15B        -7.0110    18.8810    27.6060 hc         1 A1J       0.021700
     42 H15A        -8.5150    19.6400    27.1350 hc         1 A1J       0.021700
     43 H17B       -10.3440    19.9590    28.8950 hc         1 A1J       0.019950
     44 H17A       -10.3910    18.2420    29.2290 hc         1 A1J       0.019950
     45 H20B       -12.1200    19.6290    32.1370 hc         1 A1J       0.010700
     46 H20C       -12.2400    20.2240    30.4840 hc         1 A1J       0.010700
     47 H20A       -12.2160    18.4880    30.7970 hc         1 A1J       0.010700
     48 H11         -8.0530    15.7460    24.2520 h1         1 A1J       0.002700
     49 H14B        -9.6910    17.4760    27.2380 hc         1 A1J       0.046450
     50 H14A        -8.2780    16.7020    27.9160 hc         1 A1J       0.046450
     51 H16B        -7.9590    18.2850    29.8140 hc         1 A1J       0.042700
     52 H16A        -7.9130    20.0090    29.5240 hc         1 A1J       0.042700
     53 H19A       -10.0840    21.0740    32.4310 hc         1 A1J       0.010700
     54 H19C        -8.6800    20.9130    31.3890 hc         1 A1J       0.010700
     55 H19B       -10.1710    21.6060    30.7550 hc         1 A1J       0.010700
     56 H9B        -10.4800    13.7310    25.0030 hc         1 A1J       0.046450
     57 H9A         -9.9400    14.3120    23.4380 hc         1 A1J       0.046450
     58 H12         -8.3530    13.9840    25.6810 ho         1 A1J       0.437000
@<TRIPOS>BOND
     1     1    18 1   
     2     1    25 1   
     3     1    26 1   
     4     1    27 1   
     5     2    18 1   
     6     2    28 1   
     7     2    29 1   
     8     2    30 1   
     9     3     4 1   
    10     3    18 1   
    11     3    31 1   
    12     3    32 1   
    13     4     5 1   
    14     4    33 1   
    15     4    34 1   
    16     5    19 1   
    17     5    35 1   
    18     5    36 1   
    19     6    12 1   
    20     6    19 1   
    21     6    37 1   
    22     6    38 1   
    23     7    12 1   
    24     7    13 1   
    25     7    39 1   
    26     7    40 1   
    27     8    13 1   
    28     8    14 1   
    29     8    41 1   
    30     8    42 1   
    31     9    14 1   
    32     9    15 1   
    33     9    43 1   
    34     9    44 1   
    35    10    15 1   
    36    10    45 1   
    37    10    46 1   
    38    10    47 1   
    39    11    15 1   
    40    11    22 1   
    41    11    23 1   
    42    12    21 1   
    43    12    48 1   
    44    13    49 1   
    45    13    50 1   
    46    14    51 1   
    47    14    52 1   
    48    15    16 1   
    49    16    53 1   
    50    16    54 1   
    51    16    55 1   
    52    17    18 1   
    53    17    20 1   
    54    17    24 1   
    55    19    56 1   
    56    19    57 1   
    57    21    58 1   
@<TRIPOS>SUBSTRUCTURE
     1 A1J         1 TEMP              0 ****  ****    0 ROOT
