@<TRIPOS>MOLECULE
A1J
   77    83     1     0     0
SMALL
abcg2


@<TRIPOS>ATOM
      1 C1          23.8440    -0.5800   -21.6730 c3         1 A1J      -0.089100
      2 C2          24.1830     0.9020   -21.7070 c3         1 A1J       0.150000
      3 C6          26.4160     3.3610   -21.7000 c3         1 A1J       0.153800
      4 C7          25.9660     3.0920   -23.1450 c3         1 A1J       0.225800
      5 C10         23.6440     3.7880   -23.3170 ca         1 A1J       0.448900
      6 C12         23.1740     5.9300   -22.6380 ca         1 A1J       0.402300
      7 C14         25.0300     7.3170   -22.0060 c3         1 A1J       0.199600
      8 C15         25.2800     8.8150   -21.8750 c5         1 A1J       0.172200
      9 C16         26.8000     9.0660   -21.8170 c5         1 A1J      -0.086400
     10 C21         23.8290    10.6800   -21.2670 c5         1 A1J       0.155300
     11 C23         24.4720     9.4280   -20.7010 c5         1 A1J      -0.112400
     12 C25         21.4260     4.7350   -23.4020 ca         1 A1J       0.039000
     13 C26         20.0580     4.6230   -23.7340 ca         1 A1J       0.214000
     14 C28         19.5420     3.6050   -24.4950 cp         1 A1J      -0.086000
     15 C31         21.7880     2.6700   -24.6570 ca         1 A1J      -0.116000
     16 C35         16.4590     4.3540   -26.4850 ca         1 A1J       0.146100
     17 C37         15.4660     3.6720   -25.8350 ca         1 A1J      -0.200000
     18 C38         15.7550     2.9070   -24.6820 ca         1 A1J       0.005000
     19 C39         14.7040     2.2160   -24.0340 ca         1 A1J      -0.111000
     20 C40         14.9410     1.4650   -22.9160 ca         1 A1J      -0.090000
     21 C42         17.2820     2.0310   -23.0070 ca         1 A1J       0.151000
     22 O3          23.1490     1.6170   -21.0220 oh         1 A1J      -0.663000
     23 C4          25.5040     1.1790   -20.9660 c3         1 A1J       0.134800
     24 N5          25.6400     2.6120   -20.7170 n7         1 A1J      -0.898400
     25 N8          24.5480     2.7790   -23.3470 nh         1 A1J      -0.768300
     26 C9          24.2030     1.3670   -23.1780 c3         1 A1J       0.203800
     27 N11         24.0660     4.9570   -22.8430 nb         1 A1J      -0.347000
     28 O13         23.6200     7.1150   -22.1980 os         1 A1J      -0.439300
     29 C17         27.1700     9.4220   -23.2590 c5         1 A1J      -0.085400
     30 C18         25.9620    10.2330   -23.7110 c5         1 A1J       0.159800
     31 N19         24.8180     9.5270   -23.1080 n3         1 A1J      -0.710600
     32 C20         23.6730    10.3630   -22.7460 c5         1 A1J       0.141800
     33 F22         24.7210    11.7820   -21.1140 f          1 A1J      -0.286000
     34 N24         21.8690     5.8600   -22.7810 nb         1 A1J      -0.207000
     35 F27         19.2210     5.5760   -23.2770 f          1 A1J      -0.146000
     36 C29         20.4640     2.6640   -24.9800 ca         1 A1J       0.174000
     37 F30         19.9890     1.6940   -25.7980 f          1 A1J      -0.173000
     38 C32         22.2820     3.6750   -23.7990 ca         1 A1J      -0.149000
     39 C33         18.1050     3.5640   -24.8810 cp         1 A1J       0.022000
     40 C34         17.7780     4.2950   -25.9970 ca         1 A1J      -0.102000
     41 C41         16.2440     1.3720   -22.3990 ca         1 A1J      -0.114000
     42 CL43        18.8510     1.8170   -22.2460 cl         1 A1J      -0.199000
     43 C44         17.1000     2.8320   -24.1730 ca         1 A1J      -0.027000
     44 H51         23.7530    -0.9150   -20.6390 hc         1 A1J       0.047367
     45 H49         22.9000    -0.7700   -22.1860 hc         1 A1J       0.047367
     46 H50         24.6260    -1.1640   -22.1610 hc         1 A1J       0.047367
     47 H56         27.4870     3.1140   -21.6560 h1         1 A1J       0.042200
     48 H55         26.3060     4.4180   -21.4700 h1         1 A1J       0.042200
     49 H58         26.5100     2.2370   -23.5440 h1         1 A1J       0.055700
     50 H57         26.2210     3.9580   -23.7530 h1         1 A1J       0.055700
     51 H61         25.3480     6.7890   -21.1040 h1         1 A1J       0.050200
     52 H62         25.5780     6.9180   -22.8580 h1         1 A1J       0.050200
     53 H63         27.3480     8.2060   -21.4290 hc         1 A1J       0.053700
     54 H64         27.0050     9.9130   -21.1610 hc         1 A1J       0.053700
     55 H48         22.9040    10.9750   -20.7720 h1         1 A1J       0.072700
     56 H71         23.6820     8.7510   -20.3780 hc         1 A1J       0.070200
     57 H72         25.0960     9.6520   -19.8370 hc         1 A1J       0.070200
     58 H73         22.4310     1.9260   -25.0980 ha         1 A1J       0.135000
     59 H76         14.4450     3.7100   -26.1950 ha         1 A1J       0.116000
     60 H77         13.7060     2.2980   -24.4450 ha         1 A1J       0.116000
     61 H78         14.1350     0.9380   -22.4220 ha         1 A1J       0.119000
     62 H52         23.5920     2.4320   -20.7160 ho         1 A1J       0.472000
     63 H54         25.4560     0.6670   -20.0040 h1         1 A1J       0.044200
     64 H53         26.3480     0.7570   -21.5250 h1         1 A1J       0.044200
     65 H60         23.2170     1.1660   -23.5710 h1         1 A1J       0.066700
     66 H59         24.9200     0.7740   -23.7480 h1         1 A1J       0.066700
     67 H66         27.2710     8.5200   -23.8660 hc         1 A1J       0.051200
     68 H65         28.1010     9.9850   -23.3330 hc         1 A1J       0.051200
     69 H68         25.8580    10.2740   -24.7970 h1         1 A1J       0.047200
     70 H67         26.0440    11.2640   -23.3430 h1         1 A1J       0.047200
     71 H69         23.6240    11.2620   -23.3610 h1         1 A1J       0.072700
     72 H70         22.7370     9.8110   -22.8780 h1         1 A1J       0.072700
     73 H74         18.5490     4.8430   -26.5230 ha         1 A1J       0.137000
     74 H75         15.3250     5.0830   -27.8550 ho         1 A1J       0.465000
     75 H79         16.4370     0.7780   -21.5160 ha         1 A1J       0.130000
     76 H45         26.0150     2.7780   -19.7930 hn         1 A1J       0.429000
     77 O36         16.2580     5.1080   -27.5990 oh         1 A1J      -0.532100
@<TRIPOS>BOND
     1     1     2 1   
     2     1    44 1   
     3     1    45 1   
     4     1    46 1   
     5     2    22 1   
     6     2    23 1   
     7     2    26 1   
     8     3     4 1   
     9     3    24 1   
    10     3    47 1   
    11     3    48 1   
    12     4    25 1   
    13     4    49 1   
    14     4    50 1   
    15     5    25 1   
    16     5    27 ar  
    17     5    38 ar  
    18     6    27 ar  
    19     6    28 1   
    20     6    34 ar  
    21     7     8 1   
    22     7    28 1   
    23     7    51 1   
    24     7    52 1   
    25     8     9 1   
    26     8    11 1   
    27     8    31 1   
    28     9    29 1   
    29     9    53 1   
    30     9    54 1   
    31    10    11 1   
    32    10    32 1   
    33    10    33 1   
    34    10    55 1   
    35    11    56 1   
    36    11    57 1   
    37    12    13 ar  
    38    12    34 ar  
    39    12    38 ar  
    40    13    14 ar  
    41    13    35 1   
    42    14    36 ar  
    43    14    39 1   
    44    15    36 ar  
    45    15    38 ar  
    46    15    58 1   
    47    16    17 ar  
    48    16    40 ar  
    49    16    77 1   
    50    17    18 ar  
    51    17    59 1   
    52    18    19 ar  
    53    18    43 ar  
    54    19    20 ar  
    55    19    60 1   
    56    20    41 ar  
    57    20    61 1   
    58    21    41 ar  
    59    21    42 1   
    60    21    43 ar  
    61    22    62 1   
    62    23    24 1   
    63    23    63 1   
    64    23    64 1   
    65    24    76 1   
    66    25    26 1   
    67    26    65 1   
    68    26    66 1   
    69    29    30 1   
    70    29    67 1   
    71    29    68 1   
    72    30    31 1   
    73    30    69 1   
    74    30    70 1   
    75    31    32 1   
    76    32    71 1   
    77    32    72 1   
    78    36    37 1   
    79    39    40 ar  
    80    39    43 ar  
    81    40    73 1   
    82    41    75 1   
    83    74    77 1   
@<TRIPOS>SUBSTRUCTURE
     1 A1J         1 TEMP              0 ****  ****    0 ROOT
