@<TRIPOS>MOLECULE
A1J
   88    93     1     0     0
SMALL
abcg2


@<TRIPOS>ATOM
      1 C1          19.0090     2.6990   -23.2060 c3         1 A1J      -0.095100
      2 C2          19.8790     1.8030   -22.3550 c3         1 A1J       0.162600
      3 C4          19.7560    -0.3960   -21.3950 ca         1 A1J       0.170100
      4 C5          18.9940    -1.5750   -21.2370 ca         1 A1J      -0.164000
      5 C6          19.5120    -2.6290   -20.5290 ca         1 A1J      -0.041000
      6 C14         21.2830    -6.0170   -18.4420 c6         1 A1J       0.227500
      7 C15         22.2190    -6.7810   -19.3840 c6         1 A1J      -0.094400
      8 C16         22.7200    -8.0600   -18.7270 c6         1 A1J       0.167800
      9 N17         21.6070    -8.9130   -18.3140 n3         1 A1J      -0.722600
     10 C22         20.1780   -11.5740   -18.6400 ca         1 A1J      -0.097000
     11 C23         19.1590   -12.5020   -18.4620 ca         1 A1J      -0.114000
     12 C34         29.1280    -0.1000   -16.3770 c3         1 A1J       0.217100
     13 C35         29.9910     0.2790   -15.2020 ca         1 A1J      -0.128300
     14 C36         30.0410     1.5930   -14.7350 ca         1 A1J      -0.059500
     15 C37         30.8120     1.9390   -13.6350 ca         1 A1J      -0.171500
     16 C24         18.9340   -13.0630   -17.2070 ca         1 A1J      -0.107000
     17 C43         21.0110    -0.3000   -20.8340 ca         1 A1J      -0.215000
     18 C10         23.3220    -2.2040   -18.8480 ca         1 A1J       0.672900
     19 C11         22.6630    -3.4480   -18.6830 ca         1 A1J      -0.337000
     20 C12         21.4000    -3.6500   -19.2140 ca         1 A1J       0.417000
     21 C18         20.7340    -8.2170   -17.3700 c6         1 A1J       0.167800
     22 C19         20.1630    -6.9410   -17.9760 c6         1 A1J      -0.094400
     23 C20         22.0900   -10.1800   -17.7710 c3         1 A1J       0.214100
     24 C21         20.9850   -11.1880   -17.5680 ca         1 A1J      -0.090300
     25 C25         19.7350   -12.6880   -16.1340 ca         1 A1J      -0.114000
     26 C26         20.7520   -11.7540   -16.3170 ca         1 A1J      -0.097000
     27 C28         25.2580    -3.0410   -17.5500 c6         1 A1J       0.220300
     28 C29         26.1850    -2.4750   -16.4790 c6         1 A1J      -0.101400
     29 C30         27.1560    -1.4400   -17.0320 c6         1 A1J       0.172500
     30 C31         26.3550    -0.3580   -17.7630 c6         1 A1J      -0.101400
     31 C32         25.4410    -0.9610   -18.8230 c6         1 A1J       0.220300
     32 C38         31.5560     0.9630   -12.9690 ca         1 A1J       0.138100
     33 C39         31.5220    -0.3570   -13.4220 ca         1 A1J      -0.171500
     34 C40         30.7420    -0.6810   -14.5280 ca         1 A1J      -0.059500
     35 C42         33.0560     0.4240   -11.1810 c3         1 A1J       0.149900
     36 C7          20.7970    -2.5700   -19.9480 ca         1 A1J      -0.199000
     37 C8          21.5590    -1.3780   -20.0940 ca         1 A1J       0.388000
     38 N13         20.7220    -4.8180   -19.0430 nu         1 A1J      -0.961200
     39 N27         24.5530    -1.9790   -18.2600 nh         1 A1J      -0.782300
     40 N9          22.7930    -1.2060   -19.5520 nb         1 A1J      -0.798000
     41 O3          19.1560     0.5870   -22.1170 os         1 A1J      -0.358100
     42 O41         32.2820     1.3860   -11.8950 os         1 A1J      -0.352100
     43 H1          19.5340     3.6340   -23.4090 hc         1 A1J       0.047033
     44 H2          18.7760     2.2210   -24.1600 hc         1 A1J       0.047033
     45 H3          18.0730     2.9330   -22.6950 hc         1 A1J       0.047033
     46 H4          20.8190     1.5690   -22.8630 h1         1 A1J       0.038200
     47 H5          20.1160     2.2760   -21.3980 h1         1 A1J       0.038200
     48 H6          18.0080    -1.6260   -21.6790 ha         1 A1J       0.127000
     49 H7          18.9000    -3.5150   -20.4170 ha         1 A1J       0.102000
     50 H8          21.8500    -5.7120   -17.5570 h1         1 A1J       0.060700
     51 H9          23.0690    -6.1570   -19.6660 hc         1 A1J       0.055950
     52 H10         21.6700    -7.0280   -20.2980 hc         1 A1J       0.055950
     53 H11         23.3410    -8.6230   -19.4270 h1         1 A1J       0.036200
     54 H12         23.3590    -7.8010   -17.8630 h1         1 A1J       0.036200
     55 H14         20.3470   -11.1330   -19.6140 ha         1 A1J       0.116000
     56 H15         18.5410   -12.7910   -19.3030 ha         1 A1J       0.112500
     57 H16         29.7140    -0.6710   -17.1040 h1         1 A1J       0.035200
     58 H17         28.7990     0.8160   -16.8840 h1         1 A1J       0.035200
     59 H18         29.4650     2.3600   -15.2410 ha         1 A1J       0.115000
     60 H19         30.8470     2.9600   -13.2770 ha         1 A1J       0.121500
     61 H20         18.1400   -13.7860   -17.0680 ha         1 A1J       0.112000
     62 H21         21.6130     0.5910   -20.9340 ha         1 A1J       0.131000
     63 H22         23.1520    -4.2560   -18.1720 ha         1 A1J       0.118000
     64 H23         19.9210    -8.8880   -17.0890 h1         1 A1J       0.036200
     65 H24         21.2850    -7.9700   -16.4450 h1         1 A1J       0.036200
     66 H25         19.5420    -6.4300   -17.2380 hc         1 A1J       0.055950
     67 H26         19.5260    -7.1960   -18.8290 hc         1 A1J       0.055950
     68 H27         22.8190   -10.5810   -18.4800 h1         1 A1J       0.038200
     69 H28         22.6220   -10.0280   -16.8170 h1         1 A1J       0.038200
     70 H29         19.5650   -13.1160   -15.1530 ha         1 A1J       0.112500
     71 H30         21.3680   -11.4550   -15.4760 ha         1 A1J       0.116000
     72 H31         24.5410    -3.6940   -17.0620 h1         1 A1J       0.047450
     73 H32         25.8360    -3.6530   -18.2580 h1         1 A1J       0.047450
     74 H33         25.5800    -2.0070   -15.6950 hc         1 A1J       0.052950
     75 H34         26.7390    -3.2970   -16.0200 hc         1 A1J       0.052950
     76 H35         27.8120    -1.9340   -17.7600 h1         1 A1J       0.054700
     77 H36         27.0210     0.3590   -18.2470 hc         1 A1J       0.052950
     78 H37         25.7540     0.1900   -17.0300 hc         1 A1J       0.052950
     79 H38         26.0550    -1.4180   -19.6150 h1         1 A1J       0.047450
     80 H39         24.8300    -0.1940   -19.2860 h1         1 A1J       0.047450
     81 H40         32.0920    -1.1300   -12.9280 ha         1 A1J       0.121500
     82 H41         30.7180    -1.7100   -14.8690 ha         1 A1J       0.115000
     83 H42         33.5410     0.9700   -10.3760 h1         1 A1J       0.041367
     84 H43         32.4200    -0.3600   -10.7630 h1         1 A1J       0.041367
     85 H44         33.8130    -0.0290   -11.8260 h1         1 A1J       0.041367
     86 H45         19.9170    -4.9720   -19.6290 hn         1 A1J       0.482000
     87 H46         27.4510    -0.4530   -15.2730 hn         1 A1J       0.413000
     88 N33         28.0160    -0.9560   -15.9510 n7         1 A1J      -0.870400
@<TRIPOS>BOND
     1     1     2 1   
     2     1    43 1   
     3     1    44 1   
     4     1    45 1   
     5     2    41 1   
     6     2    46 1   
     7     2    47 1   
     8     3     4 ar  
     9     3    17 ar  
    10     3    41 1   
    11     4     5 ar  
    12     4    48 1   
    13     5    36 ar  
    14     5    49 1   
    15     6     7 1   
    16     6    22 1   
    17     6    38 1   
    18     6    50 1   
    19     7     8 1   
    20     7    51 1   
    21     7    52 1   
    22     8     9 1   
    23     8    53 1   
    24     8    54 1   
    25     9    21 1   
    26     9    23 1   
    27    10    11 ar  
    28    10    24 ar  
    29    10    55 1   
    30    11    16 ar  
    31    11    56 1   
    32    12    13 1   
    33    12    57 1   
    34    12    58 1   
    35    12    88 1   
    36    13    14 ar  
    37    13    34 ar  
    38    14    15 ar  
    39    14    59 1   
    40    15    32 ar  
    41    15    60 1   
    42    16    25 ar  
    43    16    61 1   
    44    17    37 ar  
    45    17    62 1   
    46    18    19 ar  
    47    18    39 1   
    48    18    40 ar  
    49    19    20 ar  
    50    19    63 1   
    51    20    36 ar  
    52    20    38 1   
    53    21    22 1   
    54    21    64 1   
    55    21    65 1   
    56    22    66 1   
    57    22    67 1   
    58    23    24 1   
    59    23    68 1   
    60    23    69 1   
    61    24    26 ar  
    62    25    26 ar  
    63    25    70 1   
    64    26    71 1   
    65    27    28 1   
    66    27    39 1   
    67    27    72 1   
    68    27    73 1   
    69    28    29 1   
    70    28    74 1   
    71    28    75 1   
    72    29    30 1   
    73    29    76 1   
    74    29    88 1   
    75    30    31 1   
    76    30    77 1   
    77    30    78 1   
    78    31    39 1   
    79    31    79 1   
    80    31    80 1   
    81    32    33 ar  
    82    32    42 1   
    83    33    34 ar  
    84    33    81 1   
    85    34    82 1   
    86    35    42 1   
    87    35    83 1   
    88    35    84 1   
    89    35    85 1   
    90    36    37 ar  
    91    37    40 ar  
    92    38    86 1   
    93    87    88 1   
@<TRIPOS>SUBSTRUCTURE
     1 A1J         1 TEMP              0 ****  ****    0 ROOT
