@<TRIPOS>MOLECULE
A1J
   77    81     1     0     0
SMALL
abcg2


@<TRIPOS>ATOM
      1 C2           2.5450   -25.0520   -22.3450 c3         1 A1J       0.162600
      2 C1           3.4020   -25.9430   -23.2140 c3         1 A1J      -0.095100
      3 C5           3.4210   -21.6610   -21.2600 ca         1 A1J      -0.165000
      4 C6           2.9050   -20.6080   -20.5470 ca         1 A1J      -0.040000
      5 C8           0.8800   -21.8760   -20.0680 ca         1 A1J       0.389000
      6 C10         -0.8730   -21.0610   -18.8000 ca         1 A1J       0.677900
      7 N11         -2.0910   -21.2980   -18.1950 nh         1 A1J      -0.781300
      8 C12         -2.9210   -22.4120   -18.6450 c6         1 A1J       0.218800
      9 C14         -4.6240   -21.9240   -16.8360 c6         1 A1J       0.182500
     10 C18         -3.7150   -20.7690   -16.4140 c6         1 A1J      -0.086400
     11 C19         -2.8650   -20.2380   -17.5640 c6         1 A1J       0.218800
     12 C30          2.8260   -10.5560   -16.2470 ca         1 A1J      -0.114000
     13 C35          0.2010   -16.4710   -19.3490 c6         1 A1J      -0.094400
     14 C36          1.4250   -22.9530   -20.8120 ca         1 A1J      -0.216000
     15 C13         -3.7590   -22.9890   -17.5110 c6         1 A1J      -0.086400
     16 C20         -0.2200   -19.8100   -18.6470 ca         1 A1J      -0.336000
     17 C21          1.0320   -19.6010   -19.1990 ca         1 A1J       0.417000
     18 C23          1.1580   -17.2310   -18.4250 c6         1 A1J       0.229500
     19 C24          2.2910   -16.3070   -17.9910 c6         1 A1J      -0.094400
     20 C25          1.7420   -15.0220   -17.3850 c6         1 A1J       0.167800
     21 C28          1.5040   -12.0500   -17.6220 ca         1 A1J      -0.089300
     22 C29          1.7980   -11.4860   -16.3830 ca         1 A1J      -0.097000
     23 C31          3.5770   -10.1820   -17.3560 ca         1 A1J      -0.107000
     24 C32          3.2910   -10.7420   -18.6010 ca         1 A1J      -0.114000
     25 C33          2.2630   -11.6670   -18.7300 ca         1 A1J      -0.097000
     26 C34         -0.2780   -15.1840   -18.6910 c6         1 A1J       0.167800
     27 C4           2.6690   -22.8480   -21.3980 ca         1 A1J       0.170100
     28 C7           1.6330   -20.6770   -19.9420 ca         1 A1J      -0.200000
     29 N15         -5.3710   -22.4720   -15.6910 n3         1 A1J      -0.714600
     30 N26          0.8500   -14.3320   -18.3150 n3         1 A1J      -0.722600
     31 N9          -0.3430   -22.0570   -19.5070 nb         1 A1J      -0.802000
     32 O3           3.2630   -23.8290   -22.1270 os         1 A1J      -0.358100
     33 H1           1.5910   -24.8280   -22.8300 h1         1 A1J       0.038200
     34 H2           2.3360   -25.5240   -21.3810 h1         1 A1J       0.038200
     35 H3           2.8820   -26.8840   -23.3990 hc         1 A1J       0.046700
     36 H4           3.6050   -25.4670   -24.1750 hc         1 A1J       0.046700
     37 H5           4.3530   -26.1650   -22.7260 hc         1 A1J       0.046700
     38 H6           4.3980   -21.6020   -21.7210 ha         1 A1J       0.126000
     39 H7           3.5110   -19.7160   -20.4510 ha         1 A1J       0.101000
     40 H8          -3.5850   -22.0640   -19.4510 h1         1 A1J       0.047200
     41 H9          -2.2750   -23.1760   -19.0620 h1         1 A1J       0.047200
     42 H10         -5.3400   -21.5380   -17.5880 h1         1 A1J       0.016700
     43 H11         -6.8020   -23.9140   -15.2100 h1         1 A1J       0.030700
     44 H12         -6.9610   -23.2910   -16.8640 h1         1 A1J       0.030700
     45 H13         -5.6590   -24.4240   -16.4480 h1         1 A1J       0.030700
     46 H14         -6.7410   -21.9300   -14.2120 h1         1 A1J       0.030700
     47 H15         -5.5360   -20.6950   -14.5580 h1         1 A1J       0.030700
     48 H16         -6.8810   -20.9550   -15.6890 h1         1 A1J       0.030700
     49 H17         -3.0590   -21.1150   -15.6090 hc         1 A1J       0.055950
     50 H18         -4.2950   -19.9310   -16.0300 hc         1 A1J       0.055950
     51 H19         -2.2020   -19.4790   -17.1630 h1         1 A1J       0.047200
     52 H20         -3.5100   -19.7510   -18.3100 h1         1 A1J       0.047200
     53 H22         -0.6580   -17.0940   -19.6050 hc         1 A1J       0.055950
     54 H23          0.7280   -16.2330   -20.2780 hc         1 A1J       0.055950
     55 H24          0.8310   -23.8500   -20.8960 ha         1 A1J       0.130000
     56 H25         -4.3720   -23.7860   -17.9320 hc         1 A1J       0.055950
     57 H26         -3.1030   -23.4380   -16.7590 hc         1 A1J       0.055950
     58 H27         -0.7000   -19.0080   -18.1180 ha         1 A1J       0.117000
     59 H28          0.6120   -17.5340   -17.5280 h1         1 A1J       0.060700
     60 H29          2.9260   -16.8150   -17.2620 hc         1 A1J       0.055950
     61 H30          2.9110   -16.0630   -18.8590 hc         1 A1J       0.055950
     62 H31          2.5640   -14.3540   -17.1300 h1         1 A1J       0.036200
     63 H32          1.2110   -15.2570   -16.4440 h1         1 A1J       0.036200
     64 H35          1.2200   -11.7830   -15.5150 ha         1 A1J       0.115000
     65 H36          4.3790    -9.4620   -17.2550 ha         1 A1J       0.112000
     66 H37          3.8710   -10.4540   -19.4690 ha         1 A1J       0.112500
     67 H38          2.0470   -12.1060   -19.6960 ha         1 A1J       0.115000
     68 H39         -0.9150   -14.6250   -19.3790 h1         1 A1J       0.036200
     69 H40         -0.8950   -15.4310   -17.8080 h1         1 A1J       0.036200
     70 N22          1.7090   -18.4300   -19.0370 nu         1 A1J      -0.963200
     71 C16         -6.2390   -23.5800   -16.0810 c3         1 A1J       0.149100
     72 C17         -6.1690   -21.4560   -15.0100 c3         1 A1J       0.149100
     73 C27          0.3890   -13.0550   -17.7740 c3         1 A1J       0.214100
     74 H21          3.0420   -10.1290   -15.2760 ha         1 A1J       0.112500
     75 H33         -0.3600   -12.6610   -18.4660 h1         1 A1J       0.038700
     76 H34         -0.1130   -13.1910   -16.8020 h1         1 A1J       0.038700
     77 H42          2.5050   -18.2760   -19.6330 hn         1 A1J       0.482000
@<TRIPOS>BOND
     1     1     2 1   
     2     1    32 1   
     3     1    33 1   
     4     1    34 1   
     5     2    35 1   
     6     2    36 1   
     7     2    37 1   
     8     3     4 ar  
     9     3    27 ar  
    10     3    38 1   
    11     4    28 ar  
    12     4    39 1   
    13     5    14 ar  
    14     5    28 ar  
    15     5    31 ar  
    16     6     7 1   
    17     6    16 ar  
    18     6    31 ar  
    19     7     8 1   
    20     7    11 1   
    21     8    15 1   
    22     8    40 1   
    23     8    41 1   
    24     9    10 1   
    25     9    15 1   
    26     9    29 1   
    27     9    42 1   
    28    10    11 1   
    29    10    49 1   
    30    10    50 1   
    31    11    51 1   
    32    11    52 1   
    33    12    22 ar  
    34    12    23 ar  
    35    12    74 1   
    36    13    18 1   
    37    13    26 1   
    38    13    53 1   
    39    13    54 1   
    40    14    27 ar  
    41    14    55 1   
    42    15    56 1   
    43    15    57 1   
    44    16    17 ar  
    45    16    58 1   
    46    17    28 ar  
    47    17    70 1   
    48    18    19 1   
    49    18    59 1   
    50    18    70 1   
    51    19    20 1   
    52    19    60 1   
    53    19    61 1   
    54    20    30 1   
    55    20    62 1   
    56    20    63 1   
    57    21    22 ar  
    58    21    25 ar  
    59    21    73 1   
    60    22    64 1   
    61    23    24 ar  
    62    23    65 1   
    63    24    25 ar  
    64    24    66 1   
    65    25    67 1   
    66    26    30 1   
    67    26    68 1   
    68    26    69 1   
    69    27    32 1   
    70    29    71 1   
    71    29    72 1   
    72    30    73 1   
    73    43    71 1   
    74    44    71 1   
    75    45    71 1   
    76    46    72 1   
    77    47    72 1   
    78    48    72 1   
    79    70    77 1   
    80    73    75 1   
    81    73    76 1   
@<TRIPOS>SUBSTRUCTURE
     1 A1J         1 TEMP              0 ****  ****    0 ROOT
