@<TRIPOS>MOLECULE
A1J
   64    68     1     0     0
SMALL
abcg2


@<TRIPOS>ATOM
      1 C20          9.7400     0.4520     8.8990 c6         1 A1J       0.221300
      2 C21          8.7460    -0.0890     9.9190 c6         1 A1J       0.182300
      3 C28          7.8940    -3.7000    10.4920 ca         1 A1J      -0.144000
      4 C02         13.5010     7.0090    12.8820 ca         1 A1J       0.165000
      5 C03         13.4050     5.6650    13.1990 ca         1 A1J      -0.150500
      6 C04         13.8820     4.7360    12.2840 ca         1 A1J      -0.073500
      7 C05         14.0600     7.4460    11.6980 ca         1 A1J      -0.150500
      8 C06         14.5390     6.4970    10.7970 ca         1 A1J      -0.073500
      9 C07         14.4540     5.1340    11.0720 ca         1 A1J      -0.098300
     10 C08         15.0050     4.0710    10.1150 c3         1 A1J       0.294800
     11 C09         16.3190     3.5310    10.6980 c3         1 A1J      -0.080100
     12 C11         13.9640     2.9630     9.9340 ca         1 A1J      -0.300300
     13 C12         14.2020     1.6050    10.0970 ca         1 A1J       0.161900
     14 C14         12.6620     3.2700     9.5370 ca         1 A1J       0.161900
     15 C16         12.0590     1.0710     9.5050 ca         1 A1J       0.392900
     16 C18         11.3280    -1.2920     9.5010 c6         1 A1J       0.221300
     17 C19         10.3280    -1.8260    10.5150 c6         1 A1J       0.182300
     18 C23          7.9150    -2.2730    10.6090 ca         1 A1J       0.374900
     19 C25          5.9260    -2.3690    11.7430 ca         1 A1J       0.147900
     20 C27          6.8440    -4.3650    11.1680 ca         1 A1J       0.052000
     21 C29          8.7970    -4.4570     9.7070 ca         1 A1J      -0.150000
     22 C30          8.7120    -5.8250     9.6610 ca         1 A1J       0.111100
     23 C32         10.5720    -6.0130     8.1840 c3         1 A1J       0.144900
     24 C33          7.6990    -6.5030    10.4170 ca         1 A1J       0.157100
     25 C35          6.7330    -8.5850    11.0540 c3         1 A1J       0.143900
     26 C36          6.7840    -5.7760    11.1390 ca         1 A1J      -0.185000
     27 N10         15.3420     4.6920     8.8170 n8         1 A1J      -0.992200
     28 N13         13.2820     0.6630     9.8900 nb         1 A1J      -0.247500
     29 N15         11.7190     2.3670     9.3210 nb         1 A1J      -0.247500
     30 N17         11.1050     0.1280     9.2830 nh         1 A1J      -0.781300
     31 N22          8.9520    -1.5270    10.0890 nh         1 A1J      -0.773300
     32 N24          6.9050    -1.6320    11.1870 nb         1 A1J      -0.262000
     33 N26          5.8560    -3.6770    11.8150 nb         1 A1J      -0.191000
     34 O31          9.5220    -6.6280     8.9330 os         1 A1J      -0.325100
     35 O34          7.7190    -7.8470    10.3280 os         1 A1J      -0.324100
     36 H201         9.6370     1.5280     8.8160 h1         1 A1J       0.071700
     37 H202         9.5330     0.0030     7.9210 h1         1 A1J       0.071700
     38 H211         8.8690     0.4390    10.8730 h1         1 A1J       0.060450
     39 H212         7.7320     0.0830     9.5680 h1         1 A1J       0.060450
     40 H031        12.9600     5.3580    14.1360 ha         1 A1J       0.133000
     41 H041        13.8000     3.6830    12.5200 ha         1 A1J       0.126000
     42 H051        14.1190     8.5050    11.4830 ha         1 A1J       0.133000
     43 H061        14.9870     6.8280     9.8720 ha         1 A1J       0.126000
     44 H091        16.7780     2.8110    10.0190 hc         1 A1J       0.045367
     45 H092        17.0100     4.3620    10.8380 hc         1 A1J       0.045367
     46 H093        16.1550     3.0470    11.6610 hc         1 A1J       0.045367
     47 H121        15.1740     1.2420    10.4110 h4         1 A1J       0.024100
     48 H141        12.3680     4.3060     9.3920 h4         1 A1J       0.024100
     49 H181        12.3390    -1.4480     9.8600 h1         1 A1J       0.071700
     50 H182        11.2040    -1.8250     8.5520 h1         1 A1J       0.071700
     51 H191        10.4640    -2.8940    10.6450 h1         1 A1J       0.060450
     52 H192        10.5090    -1.3440    11.4860 h1         1 A1J       0.060450
     53 H251         5.1190    -1.8060    12.2030 h5         1 A1J       0.047100
     54 H291         9.5360    -3.9470     9.1120 ha         1 A1J       0.128000
     55 H321        11.1120    -6.8260     7.7090 h1         1 A1J       0.043700
     56 H322        10.1670    -5.3420     7.4230 h1         1 A1J       0.043700
     57 H323        11.2420    -5.4560     8.8430 h1         1 A1J       0.043700
     58 H351         6.9440    -9.6330    10.8570 h1         1 A1J       0.047033
     59 H352         6.8100    -8.3850    12.1250 h1         1 A1J       0.047033
     60 H353         5.7280    -8.3370    10.7050 h1         1 A1J       0.047033
     61 H361         5.9850    -6.2580    11.6810 ha         1 A1J       0.142000
     62 H1          15.7140     3.9710     8.2060 hn         1 A1J       0.399000
     63 H101        14.5000     5.0350     8.3630 hn         1 A1J       0.399000
     64 F01         13.0250     7.9260    13.7660 f          1 A1J      -0.184000
@<TRIPOS>BOND
     1     1     2 1   
     2     1    30 1   
     3     1    36 1   
     4     1    37 1   
     5     2    31 1   
     6     2    38 1   
     7     2    39 1   
     8     3    18 ar  
     9     3    20 ar  
    10     3    21 ar  
    11     4     5 ar  
    12     4     7 ar  
    13     4    64 1   
    14     5     6 ar  
    15     5    40 1   
    16     6     9 ar  
    17     6    41 1   
    18     7     8 ar  
    19     7    42 1   
    20     8     9 ar  
    21     8    43 1   
    22     9    10 1   
    23    10    11 1   
    24    10    12 1   
    25    10    27 1   
    26    11    44 1   
    27    11    45 1   
    28    11    46 1   
    29    12    13 ar  
    30    12    14 ar  
    31    13    28 ar  
    32    13    47 1   
    33    14    29 ar  
    34    14    48 1   
    35    15    28 ar  
    36    15    29 ar  
    37    15    30 1   
    38    16    17 1   
    39    16    30 1   
    40    16    49 1   
    41    16    50 1   
    42    17    31 1   
    43    17    51 1   
    44    17    52 1   
    45    18    31 1   
    46    18    32 ar  
    47    19    32 ar  
    48    19    33 ar  
    49    19    53 1   
    50    20    26 ar  
    51    20    33 ar  
    52    21    22 ar  
    53    21    54 1   
    54    22    24 ar  
    55    22    34 1   
    56    23    34 1   
    57    23    55 1   
    58    23    56 1   
    59    23    57 1   
    60    24    26 ar  
    61    24    35 1   
    62    25    35 1   
    63    25    58 1   
    64    25    59 1   
    65    25    60 1   
    66    26    61 1   
    67    27    62 1   
    68    27    63 1   
@<TRIPOS>SUBSTRUCTURE
     1 A1J         1 TEMP              0 ****  ****    0 ROOT
