@<TRIPOS>MOLECULE
A1J
   61    65     1     0     0
SMALL
abcg2


@<TRIPOS>ATOM
      1 C20         11.2370    -1.3730     9.7230 c6         1 A1J       0.219800
      2 C21         10.0950    -1.8730    10.5910 c6         1 A1J       0.191300
      3 C28          7.7440    -3.8000    10.1680 ca         1 A1J      -0.145000
      4 C02         13.8320     6.8490    12.5990 ca         1 A1J       0.165000
      5 C03         14.3370     7.2540    11.3800 ca         1 A1J      -0.150500
      6 C04         14.7650     6.2790    10.4800 ca         1 A1J      -0.073500
      7 C05         13.7410     5.5150    12.9540 ca         1 A1J      -0.150500
      8 C06         14.1660     4.5610    12.0400 ca         1 A1J      -0.073500
      9 C07         14.6820     4.9240    10.7930 ca         1 A1J      -0.096300
     10 C08         15.1620     3.8290     9.8330 c3         1 A1J       0.294800
     11 C09         16.4810     3.2540    10.3710 c3         1 A1J      -0.081100
     12 C11         14.0760     2.7560     9.7260 ca         1 A1J      -0.299300
     13 C12         14.2490     1.4070    10.0000 ca         1 A1J       0.160900
     14 C14         12.7870     3.0930     9.3080 ca         1 A1J       0.160900
     15 C16         12.0690     0.9390     9.4980 ca         1 A1J       0.391900
     16 C18          9.7500     0.3630     8.8580 c6         1 A1J       0.219800
     17 C19          8.6190    -0.1670     9.7300 c6         1 A1J       0.191300
     18 C23          7.7020    -2.3690    10.2550 ca         1 A1J       0.384900
     19 C25          5.5210    -2.5070    10.9460 ca         1 A1J       0.151900
     20 C27          6.5920    -4.4850    10.6300 ca         1 A1J       0.047000
     21 C29          8.8060    -4.5440     9.6050 ca         1 A1J      -0.098000
     22 C30          8.7620    -5.9110     9.5870 ca         1 A1J       0.106100
     23 C32          7.6390    -6.6020    10.1310 ca         1 A1J       0.095100
     24 C34          6.6620    -8.7420    10.5630 c3         1 A1J       0.156900
     25 C35          6.5700    -5.8980    10.6280 ca         1 A1J      -0.161000
     26 N10         15.4660     4.4140     8.5110 n8         1 A1J      -0.994200
     27 N13         13.2780     0.5000     9.8890 nb         1 A1J      -0.246000
     28 N15         11.7960     2.2250     9.1840 nb         1 A1J      -0.246000
     29 N17         11.0500     0.0390     9.4300 nh         1 A1J      -0.781300
     30 N22          8.8020    -1.6000     9.9500 nh         1 A1J      -0.776300
     31 N24          6.5760    -1.7490    10.5920 nb         1 A1J      -0.266000
     32 N26          5.4720    -3.8130    11.0370 nb         1 A1J      -0.194000
     33 O31          9.7830    -6.6210     9.0400 oh         1 A1J      -0.534100
     34 O33          7.7430    -7.9470    10.0630 os         1 A1J      -0.372100
     35 H201        11.2680    -1.9470     8.7890 h1         1 A1J       0.069700
     36 H202        12.1800    -1.5070    10.2420 h1         1 A1J       0.069700
     37 H211        10.2100    -2.9320    10.7870 h1         1 A1J       0.061450
     38 H212        10.1230    -1.3490    11.5560 h1         1 A1J       0.061450
     39 H031        14.3930     8.3070    11.1360 ha         1 A1J       0.132500
     40 H041        15.1710     6.5840     9.5270 ha         1 A1J       0.126000
     41 H051        13.3410     5.2340    13.9190 ha         1 A1J       0.132500
     42 H061        14.0860     3.5150    12.3050 ha         1 A1J       0.126000
     43 H091        16.8770     2.4950     9.6930 hc         1 A1J       0.045367
     44 H092        17.2090     4.0600    10.4510 hc         1 A1J       0.045367
     45 H093        16.3480     2.8050    11.3540 hc         1 A1J       0.045367
     46 H121        15.2080     1.0220    10.3260 h4         1 A1J       0.023600
     47 H141        12.5460     4.1250     9.0660 h4         1 A1J       0.023600
     48 H181         9.6740    -0.0860     7.8600 h1         1 A1J       0.069700
     49 H182         9.6640     1.4390     8.7590 h1         1 A1J       0.069700
     50 H191         8.6000     0.3720    10.6850 h1         1 A1J       0.061450
     51 H192         7.6690    -0.0020     9.2290 h1         1 A1J       0.061450
     52 H251         4.6210    -1.9600    11.2110 h5         1 A1J       0.047100
     53 H291         9.6540    -4.0530     9.1520 ha         1 A1J       0.140000
     54 H341         6.9640    -9.7760    10.4220 h1         1 A1J       0.049700
     55 H342         6.5010    -8.5400    11.6240 h1         1 A1J       0.049700
     56 H343         5.7480    -8.5390    10.0030 h1         1 A1J       0.049700
     57 H351         5.6880    -6.3960    11.0020 ha         1 A1J       0.140000
     58 H1          15.7980     3.6720     7.9020 hn         1 A1J       0.399500
     59 H101        14.6190     4.7730     8.0790 hn         1 A1J       0.399500
     60 H311         9.5750    -7.5660     9.1070 ho         1 A1J       0.483000
     61 F01         13.4030     7.7910    13.4820 f          1 A1J      -0.185000
@<TRIPOS>BOND
     1     1     2 1   
     2     1    29 1   
     3     1    35 1   
     4     1    36 1   
     5     2    30 1   
     6     2    37 1   
     7     2    38 1   
     8     3    18 ar  
     9     3    20 ar  
    10     3    21 ar  
    11     4     5 ar  
    12     4     7 ar  
    13     4    61 1   
    14     5     6 ar  
    15     5    39 1   
    16     6     9 ar  
    17     6    40 1   
    18     7     8 ar  
    19     7    41 1   
    20     8     9 ar  
    21     8    42 1   
    22     9    10 1   
    23    10    11 1   
    24    10    12 1   
    25    10    26 1   
    26    11    43 1   
    27    11    44 1   
    28    11    45 1   
    29    12    13 ar  
    30    12    14 ar  
    31    13    27 ar  
    32    13    46 1   
    33    14    28 ar  
    34    14    47 1   
    35    15    27 ar  
    36    15    28 ar  
    37    15    29 1   
    38    16    17 1   
    39    16    29 1   
    40    16    48 1   
    41    16    49 1   
    42    17    30 1   
    43    17    50 1   
    44    17    51 1   
    45    18    30 1   
    46    18    31 ar  
    47    19    31 ar  
    48    19    32 ar  
    49    19    52 1   
    50    20    25 ar  
    51    20    32 ar  
    52    21    22 ar  
    53    21    53 1   
    54    22    23 ar  
    55    22    33 1   
    56    23    25 ar  
    57    23    34 1   
    58    24    34 1   
    59    24    54 1   
    60    24    55 1   
    61    24    56 1   
    62    25    57 1   
    63    26    58 1   
    64    26    59 1   
    65    33    60 1   
@<TRIPOS>SUBSTRUCTURE
     1 A1J         1 TEMP              0 ****  ****    0 ROOT
