@<TRIPOS>MOLECULE
A1J
   60    64     1     0     0
SMALL
abcg2


@<TRIPOS>ATOM
      1 C10         -2.0820    -3.8220    55.6960 c3         1 A1J       0.143900
      2 C13         -8.9180    -4.8240    56.6010 ca         1 A1J      -0.232000
      3 C17        -11.5680    -1.6790    55.1840 c6         1 A1J       0.223800
      4 C21        -12.4080     0.3960    56.2220 ca         1 A1J       0.384900
      5 C24        -14.4490     2.0970    56.7670 ca         1 A1J      -0.250300
      6 C26        -16.5020     2.4260    58.1710 ca         1 A1J      -0.083300
      7 C28        -18.5810     1.3640    58.8170 ca         1 A1J      -0.108000
      8 C01         -5.5110     0.1330    54.2160 c3         1 A1J       0.144900
      9 C03         -5.2440    -2.0300    55.1770 ca         1 A1J       0.117100
     10 C04         -6.5900    -2.1840    55.3790 ca         1 A1J      -0.164000
     11 C05         -7.1170    -3.3700    55.9490 ca         1 A1J      -0.082000
     12 C06         -6.2310    -4.4360    56.2560 ca         1 A1J       0.292000
     13 C07         -4.8380    -4.2510    56.0630 ca         1 A1J      -0.175000
     14 C08         -4.3420    -3.0800    55.5510 ca         1 A1J       0.141100
     15 C12         -7.9580    -5.8180    56.8430 ca         1 A1J       0.364900
     16 C14         -8.5120    -3.5680    56.1840 ca         1 A1J       0.322000
     17 C16        -10.8160    -2.8600    55.7800 c6         1 A1J       0.172800
     18 C18         -9.2770    -1.3570    56.8520 c6         1 A1J       0.172800
     19 C19        -10.0050    -0.1540    56.2810 c6         1 A1J       0.223800
     20 C23        -13.1320     2.3660    57.1160 ca         1 A1J       0.157400
     21 C25        -15.5950     3.0150    57.1120 c3         1 A1J       0.039200
     22 C27        -17.7660     1.9380    57.8440 ca         1 A1J      -0.105000
     23 C29        -18.1410     1.2730    60.1330 ca         1 A1J      -0.109000
     24 C30        -16.8800     1.7620    60.4700 ca         1 A1J      -0.108000
     25 C31        -16.0700     2.3320    59.4960 ca         1 A1J      -0.105000
     26 C32        -14.6300     0.8960    56.0840 ca         1 A1J       0.157400
     27 N11         -6.6570    -5.6490    56.7080 nb         1 A1J      -0.676000
     28 N15         -9.4080    -2.5170    55.9560 nh         1 A1J      -0.788400
     29 N20        -11.3950    -0.4900    56.0080 nh         1 A1J      -0.778300
     30 N22        -12.1160     1.5500    56.8530 nb         1 A1J      -0.245000
     31 N33        -13.6440     0.0540    55.8020 nb         1 A1J      -0.245000
     32 O09         -3.0330    -2.8190    55.3350 os         1 A1J      -0.327100
     33 H101        -1.1070    -3.4030    55.4610 h1         1 A1J       0.045033
     34 H102        -2.1420    -4.0470    56.7630 h1         1 A1J       0.045033
     35 H103        -2.2420    -4.7360    55.1200 h1         1 A1J       0.045033
     36 H131        -9.9590    -5.0480    56.7800 ha         1 A1J       0.122000
     37 H171       -11.1920    -1.4830    54.1720 h1         1 A1J       0.065700
     38 H172       -12.6240    -1.9140    55.1180 h1         1 A1J       0.065700
     39 H281       -19.5610     0.9880    58.5450 ha         1 A1J       0.113000
     40 H011        -4.8520     0.8970    53.8120 h1         1 A1J       0.043033
     41 H012        -6.2110    -0.1970    53.4450 h1         1 A1J       0.043033
     42 H013        -6.0670     0.5340    55.0660 h1         1 A1J       0.043033
     43 H041        -7.2720    -1.4080    55.0730 ha         1 A1J       0.131000
     44 H071        -4.1850    -5.0710    56.3230 ha         1 A1J       0.138000
     45 H121        -8.2880    -6.7930    57.1890 h4         1 A1J       0.016100
     46 H161       -11.2830    -3.1400    56.7360 h1         1 A1J       0.051950
     47 H162       -10.8950    -3.7070    55.1000 h1         1 A1J       0.051950
     48 H181        -9.7020    -1.6070    57.8350 h1         1 A1J       0.051950
     49 H182        -8.2290    -1.1120    56.9960 h1         1 A1J       0.051950
     50 H191        -9.9700     0.6670    56.9890 h1         1 A1J       0.065700
     51 H192        -9.5110     0.1650    55.3540 h1         1 A1J       0.065700
     52 H231       -12.8840     3.2910    57.6300 h4         1 A1J       0.021100
     53 H251       -16.1800     3.2340    56.2170 hc         1 A1J       0.053200
     54 H252       -15.1840     3.9630    57.4680 hc         1 A1J       0.053200
     55 H271       -18.1140     2.0070    56.8210 ha         1 A1J       0.110000
     56 H291       -18.7730     0.8280    60.8910 ha         1 A1J       0.113000
     57 H301       -16.5310     1.6990    61.4930 ha         1 A1J       0.113000
     58 H311       -15.0870     2.7050    59.7620 ha         1 A1J       0.110000
     59 H321       -15.6210     0.6040    55.7450 h4         1 A1J       0.021100
     60 O02         -4.6610    -0.9390    54.6240 os         1 A1J      -0.326100
@<TRIPOS>BOND
     1     1    32 1   
     2     1    33 1   
     3     1    34 1   
     4     1    35 1   
     5     2    15 ar  
     6     2    16 ar  
     7     2    36 1   
     8     3    17 1   
     9     3    29 1   
    10     3    37 1   
    11     3    38 1   
    12     4    29 1   
    13     4    30 ar  
    14     4    31 ar  
    15     5    20 ar  
    16     5    21 1   
    17     5    26 ar  
    18     6    21 1   
    19     6    22 ar  
    20     6    25 ar  
    21     7    22 ar  
    22     7    23 ar  
    23     7    39 1   
    24     8    40 1   
    25     8    41 1   
    26     8    42 1   
    27     8    60 1   
    28     9    10 ar  
    29     9    14 ar  
    30     9    60 1   
    31    10    11 ar  
    32    10    43 1   
    33    11    12 ar  
    34    11    16 ar  
    35    12    13 ar  
    36    12    27 ar  
    37    13    14 ar  
    38    13    44 1   
    39    14    32 1   
    40    15    27 ar  
    41    15    45 1   
    42    16    28 1   
    43    17    28 1   
    44    17    46 1   
    45    17    47 1   
    46    18    19 1   
    47    18    28 1   
    48    18    48 1   
    49    18    49 1   
    50    19    29 1   
    51    19    50 1   
    52    19    51 1   
    53    20    30 ar  
    54    20    52 1   
    55    21    53 1   
    56    21    54 1   
    57    22    55 1   
    58    23    24 ar  
    59    23    56 1   
    60    24    25 ar  
    61    24    57 1   
    62    25    58 1   
    63    26    31 ar  
    64    26    59 1   
@<TRIPOS>SUBSTRUCTURE
     1 A1J         1 TEMP              0 ****  ****    0 ROOT
