@<TRIPOS>MOLECULE
A1J
   49    53     1     0     0
SMALL
abcg2


@<TRIPOS>ATOM
      1 C10        -15.4110     3.2590    57.1320 c3         1 A1J       0.039200
      2 C13        -18.5180     1.8650    58.8510 ca         1 A1J      -0.108000
      3 C15        -16.8680     2.3480    60.5320 ca         1 A1J      -0.108000
      4 C17        -13.0050     2.4600    57.3660 ca         1 A1J       0.157400
      5 C20         -8.9990    -1.0560    56.0380 c6         1 A1J       0.215800
      6 C22         -7.7500    -5.6370    56.5630 ca         1 A1J       0.177900
      7 C24         -6.1350    -4.3230    55.7950 ca         1 A1J       0.146500
      8 C26         -6.2080    -2.1380    55.1370 cc         1 A1J      -0.206200
      9 C01         -8.3230    -3.4290    56.1460 ca         1 A1J       0.437900
     10 C03        -10.6800    -2.8400    56.4420 c6         1 A1J       0.215800
     11 C04        -11.6210    -1.8090    55.8440 c6         1 A1J       0.221300
     12 C06        -12.3350     0.4340    56.5610 ca         1 A1J       0.383900
     13 C08        -14.5040     1.0590    56.2370 ca         1 A1J       0.157400
     14 C09        -14.3000     2.2660    56.9020 ca         1 A1J      -0.252300
     15 C11        -16.3780     2.7980    58.2030 ca         1 A1J      -0.083300
     16 C12        -17.6450     2.3250    57.8680 ca         1 A1J      -0.105000
     17 C14        -18.1320     1.8740    60.1860 ca         1 A1J      -0.110000
     18 C16        -15.9990     2.8040    59.5480 ca         1 A1J      -0.105000
     19 C19         -9.9880    -0.2240    56.8390 c6         1 A1J       0.221300
     20 C25         -6.9890    -3.2000    55.7130 ca         1 A1J      -0.247800
     21 C27         -4.9540    -2.6390    54.9190 cd         1 A1J      -0.179100
     22 N02         -9.2880    -2.4810    56.1720 nh         1 A1J      -0.789300
     23 N05        -11.3530    -0.4880    56.4010 nh         1 A1J      -0.787300
     24 N07        -13.5540     0.1510    56.0520 nb         1 A1J      -0.244000
     25 N18        -12.0260     1.5720    57.2150 nb         1 A1J      -0.244000
     26 N21         -8.6710    -4.6690    56.5510 nb         1 A1J      -0.303000
     27 N23         -6.4720    -5.5510    56.2210 nb         1 A1J      -0.232000
     28 N28         -4.9120    -3.9570    55.3230 na         1 A1J      -0.324400
     29 H101       -15.9600     3.4210    56.2020 hc         1 A1J       0.053200
     30 H102       -14.9730     4.2170    57.4200 hc         1 A1J       0.053200
     31 H131       -19.5000     1.5010    58.5720 ha         1 A1J       0.113000
     32 H151       -16.5600     2.3610    61.5710 ha         1 A1J       0.113000
     33 H171       -12.7460     3.3770    57.8890 h4         1 A1J       0.020100
     34 H201        -9.0220    -0.7490    54.9870 h1         1 A1J       0.064200
     35 H202        -8.0060    -0.8530    56.4290 h1         1 A1J       0.064200
     36 H261        -6.5180    -1.1360    54.8980 ha         1 A1J       0.201000
     37 H031       -10.8860    -3.8110    55.9980 h1         1 A1J       0.064200
     38 H032       -10.8560    -2.9280    57.5190 h1         1 A1J       0.064200
     39 H041       -11.5200    -1.7990    54.7530 h1         1 A1J       0.066700
     40 H042       -12.6450    -2.0940    56.0750 h1         1 A1J       0.066700
     41 H081       -15.4820     0.8200    55.8300 h4         1 A1J       0.020100
     42 H121       -17.9520     2.3190    56.8280 ha         1 A1J       0.110000
     43 H141       -18.8080     1.5180    60.9530 ha         1 A1J       0.113000
     44 H161       -15.0160     3.1660    59.8230 ha         1 A1J       0.110000
     45 H191        -9.7590     0.8280    56.6910 h1         1 A1J       0.066700
     46 H192        -9.8740    -0.4390    57.9080 h1         1 A1J       0.066700
     47 H271        -4.0800    -2.1640    54.5050 h4         1 A1J       0.217000
     48 H281        -4.1130    -4.5690    55.2580 hn         1 A1J       0.362000
     49 H221        -8.0960    -6.6090    56.9020 h5         1 A1J       0.045100
@<TRIPOS>BOND
     1     1    14 1   
     2     1    15 1   
     3     1    29 1   
     4     1    30 1   
     5     2    16 ar  
     6     2    17 ar  
     7     2    31 1   
     8     3    17 ar  
     9     3    18 ar  
    10     3    32 1   
    11     4    14 ar  
    12     4    25 ar  
    13     4    33 1   
    14     5    19 1   
    15     5    22 1   
    16     5    34 1   
    17     5    35 1   
    18     6    26 ar  
    19     6    27 ar  
    20     6    49 1   
    21     7    20 ar  
    22     7    27 ar  
    23     7    28 1   
    24     8    20 1   
    25     8    21 2   
    26     8    36 1   
    27     9    20 ar  
    28     9    22 1   
    29     9    26 ar  
    30    10    11 1   
    31    10    22 1   
    32    10    37 1   
    33    10    38 1   
    34    11    23 1   
    35    11    39 1   
    36    11    40 1   
    37    12    23 1   
    38    12    24 ar  
    39    12    25 ar  
    40    13    14 ar  
    41    13    24 ar  
    42    13    41 1   
    43    15    16 ar  
    44    15    18 ar  
    45    16    42 1   
    46    17    43 1   
    47    18    44 1   
    48    19    23 1   
    49    19    45 1   
    50    19    46 1   
    51    21    28 1   
    52    21    47 1   
    53    28    48 1   
@<TRIPOS>SUBSTRUCTURE
     1 A1J         1 TEMP              0 ****  ****    0 ROOT
