@<TRIPOS>MOLECULE
A1J
   58    60     1     0     0
SMALL
abcg2


@<TRIPOS>ATOM
      1 C16         24.3230    28.8120     7.3770 ca         1 A1J      -0.100000
      2 C19         23.4640    26.3060     6.5110 ca         1 A1J      -0.118000
      3 F21         23.8650    26.9700     4.2840 f          1 A1J      -0.161000
      4 C28         28.5250    26.8290    14.4730 c3         1 A1J      -0.150400
      5 C33         30.1050    22.6570    14.6100 c3         1 A1J       0.154600
      6 C1          26.3960    31.7030    17.2440 c3         1 A1J      -0.098100
      7 C11         22.3410    31.3920    10.5470 ca         1 A1J       0.418900
      8 C12         22.6380    30.2210     9.8040 ca         1 A1J      -0.177000
      9 C13         23.5870    29.3130    10.3020 ca         1 A1J       0.427000
     10 C15         23.8800    27.8660     8.3000 ca         1 A1J       0.279000
     11 C17         24.3050    28.5120     6.0240 ca         1 A1J       0.101000
     12 C18         23.8770    27.2610     5.6000 ca         1 A1J       0.167000
     13 C20         23.4580    26.6110     7.8640 ca         1 A1J      -0.104000
     14 C29         28.5250    25.3150    14.6770 c3         1 A1J      -0.106400
     15 C30         29.7220    24.8810    15.5330 c3         1 A1J       0.169800
     16 C32         28.7750    22.9050    16.6050 c3         1 A1J       0.154600
     17 C4          25.3180    30.3320    14.0310 ca         1 A1J       0.135100
     18 C5          25.7640    29.1560    13.3460 ca         1 A1J      -0.045000
     19 C6          25.2040    28.8310    12.1340 ca         1 A1J      -0.105000
     20 C7          24.1970    29.6370    11.5550 ca         1 A1J      -0.137000
     21 C8          23.7890    30.8220    12.2220 ca         1 A1J       0.324000
     22 C9          24.3620    31.1420    13.4690 ca         1 A1J      -0.175000
     23 N10         22.8700    31.6930    11.7020 nb         1 A1J      -0.693000
     24 N14         23.9120    28.1450     9.6810 nu         1 A1J      -0.987000
     25 N24         21.1800    29.8420     7.7210 n1         1 A1J      -0.461000
     26 N25         26.7740    28.4300    13.9800 ns         1 A1J      -0.141000
     27 N31         29.8580    23.4520    15.8030 n3         1 A1J      -0.726600
     28 O27         27.1300    26.7170    12.5170 o          1 A1J      -0.597100
     29 O3          25.9230    30.5540    15.2140 os         1 A1J      -0.379100
     30 CL22        24.8320    29.6880     4.8590 cl         1 A1J      -0.167000
     31 H16         24.6810    29.7780     7.7040 ha         1 A1J       0.144000
     32 H19         23.1380    25.3390     6.1520 ha         1 A1J       0.140000
     33 H28B        29.4650    27.1360    14.0010 hc         1 A1J       0.061700
     34 H28A        28.4730    27.3430    15.4350 hc         1 A1J       0.061700
     35 H33C        30.3750    21.6390    14.9010 h1         1 A1J       0.031700
     36 H33B        29.2350    22.5910    13.9370 h1         1 A1J       0.031700
     37 H33A        30.9370    23.0860    14.0480 h1         1 A1J       0.031700
     38 H1C         26.1480    32.5750    17.8520 hc         1 A1J       0.051033
     39 H1B         26.1980    30.8050    17.8320 hc         1 A1J       0.051033
     40 H1A         27.4590    31.7390    17.0040 hc         1 A1J       0.051033
     41 H11         21.6070    32.0800    10.1400 h4         1 A1J       0.029100
     42 H2B         24.4930    31.6670    16.2130 h1         1 A1J       0.045700
     43 H2A         25.7520    32.6090    15.3870 h1         1 A1J       0.045700
     44 H20         23.1190    25.8800     8.5850 ha         1 A1J       0.129000
     45 H29A        27.5890    25.0160    15.1560 hc         1 A1J       0.057200
     46 H29B        28.5590    24.8240    13.7040 hc         1 A1J       0.057200
     47 H30B        30.6410    25.2140    15.0410 h1         1 A1J       0.048700
     48 H30A        29.6720    25.3950    16.4980 h1         1 A1J       0.048700
     49 H32A        29.0300    21.8900    16.9170 h1         1 A1J       0.031700
     50 H32B        28.6350    23.5150    17.4990 h1         1 A1J       0.031700
     51 H32C        27.8120    22.8570    16.0710 h1         1 A1J       0.031700
     52 H6          25.5790    27.9570    11.6310 ha         1 A1J       0.150000
     53 H9          24.0290    32.0430    13.9600 ha         1 A1J       0.141000
     54 H14         24.3080    27.4190    10.2580 hn         1 A1J       0.512000
     55 H25         27.0780    28.8230    14.8590 hn         1 A1J       0.171000
     56 C23         21.8610    29.9860     8.6430 cg         1 A1J       0.337000
     57 C26         27.4120    27.2980    13.5590 c          1 A1J       0.606100
     58 C2          25.5610    31.7150    15.9860 c3         1 A1J       0.169600
@<TRIPOS>BOND
     1     1    10 ar  
     2     1    11 ar  
     3     1    31 1   
     4     2    12 ar  
     5     2    13 ar  
     6     2    32 1   
     7     3    12 1   
     8     4    14 1   
     9     4    33 1   
    10     4    34 1   
    11     4    57 1   
    12     5    27 1   
    13     5    35 1   
    14     5    36 1   
    15     5    37 1   
    16     6    38 1   
    17     6    39 1   
    18     6    40 1   
    19     6    58 1   
    20     7     8 ar  
    21     7    23 ar  
    22     7    41 1   
    23     8     9 ar  
    24     8    56 1   
    25     9    20 ar  
    26     9    24 1   
    27    10    13 ar  
    28    10    24 1   
    29    11    12 ar  
    30    11    30 1   
    31    13    44 1   
    32    14    15 1   
    33    14    45 1   
    34    14    46 1   
    35    15    27 1   
    36    15    47 1   
    37    15    48 1   
    38    16    27 1   
    39    16    49 1   
    40    16    50 1   
    41    16    51 1   
    42    17    18 ar  
    43    17    22 ar  
    44    17    29 1   
    45    18    19 ar  
    46    18    26 1   
    47    19    20 ar  
    48    19    52 1   
    49    20    21 ar  
    50    21    22 ar  
    51    21    23 ar  
    52    22    53 1   
    53    24    54 1   
    54    25    56 3   
    55    26    55 1   
    56    26    57 1   
    57    28    57 2   
    58    29    58 1   
    59    42    58 1   
    60    43    58 1   
@<TRIPOS>SUBSTRUCTURE
     1 A1J         1 TEMP              0 ****  ****    0 ROOT
