@<TRIPOS>MOLECULE
A1L
   53    57     1     0     0
SMALL
abcg2


@<TRIPOS>ATOM
      1 C8         109.1450   112.9510   133.3840 c6         1 A1L       0.235800
      2 C5         109.8090   110.9930   131.9120 ca         1 A1L      -0.065300
      3 C6         109.5550   110.1110   130.8450 ca         1 A1L      -0.099000
      4 C2         107.4330   111.1970   130.5450 ca         1 A1L       0.050100
      5 C4         108.8820   111.9660   132.2670 ca         1 A1L      -0.075300
      6 C1         108.3700   110.2450   130.1750 ca         1 A1L       0.055100
      7 O1         107.9060   109.5460   129.1100 os         1 A1L      -0.344100
      8 O2         106.3580   111.1130   129.7220 os         1 A1L      -0.344100
      9 C3         107.6540   112.0590   131.5830 ca         1 A1L      -0.092000
     10 C7         106.5530   109.9450   128.9370 c5         1 A1L       0.373600
     11 C9         110.9420   111.4660   134.0650 c6         1 A1L       0.174800
     12 C10        111.0880   110.8590   132.6870 c6         1 A1L      -0.028100
     13 C11        108.9920   114.4050   132.9060 c6         1 A1L       0.007600
     14 C12        109.2210   115.3350   134.0710 ca         1 A1L      -0.096300
     15 C13        110.0180   114.9270   135.1430 ca         1 A1L      -0.054300
     16 C14        110.5810   113.5320   135.2050 c6         1 A1L       0.220100
     17 C15        108.6680   116.6070   134.0970 ca         1 A1L      -0.070000
     18 C16        108.8930   117.4790   135.1540 ca         1 A1L      -0.190000
     19 C17        109.6870   117.0790   136.2210 ca         1 A1L       0.122100
     20 C18        110.2400   115.7920   136.2100 ca         1 A1L       0.063100
     21 C19        109.4190   119.1400   137.3560 c3         1 A1L       0.145900
     22 C20        112.3420   115.7770   137.2470 c3         1 A1L       0.148900
     23 C21        109.9570   114.7180   131.7510 c3         1 A1L      -0.035200
     24 C22        109.5150   115.7440   130.7540 c2         1 A1L      -0.203200
     25 C23        108.2930   116.2250   130.5510 c2         1 A1L      -0.338000
     26 N1         110.4780   112.8310   133.9450 n3         1 A1L      -0.728600
     27 H1         108.3780   112.7740   134.1630 h1         1 A1L       0.041700
     28 H2         110.2800   109.3550   130.5730 ha         1 A1L       0.132000
     29 H3         106.9070   112.7920   131.8610 ha         1 A1L       0.133000
     30 H4         106.3660   110.1710   127.8870 h2         1 A1L       0.063700
     31 H5         105.8840   109.1480   129.2810 h2         1 A1L       0.063700
     32 H6         110.2630   110.8510   134.6810 h1         1 A1L       0.036200
     33 H7         111.9080   111.4740   134.5730 h1         1 A1L       0.036200
     34 H8         111.3640   109.8060   132.7710 hc         1 A1L       0.058200
     35 H9         111.9060   111.3560   132.1570 hc         1 A1L       0.058200
     36 H10        107.9610   114.5400   132.5700 hc         1 A1L       0.056700
     37 H11        110.0620   112.9840   136.0120 h1         1 A1L       0.050200
     38 H12        111.6360   113.5590   135.4890 h1         1 A1L       0.050200
     39 H13        108.0370   116.9310   133.2800 ha         1 A1L       0.118000
     40 H14        108.4350   118.4580   135.1310 ha         1 A1L       0.119000
     41 H15        109.7540   119.5760   138.2940 h1         1 A1L       0.040367
     42 H16        109.7720   119.7650   136.5310 h1         1 A1L       0.040367
     43 H17        108.3260   119.1300   137.3450 h1         1 A1L       0.040367
     44 H18        112.8290   115.3270   138.1100 h1         1 A1L       0.035033
     45 H19        112.8470   115.4320   136.3410 h1         1 A1L       0.035033
     46 H20        112.4450   116.8620   137.3130 h1         1 A1L       0.035033
     47 H21        110.1740   113.8010   131.1900 hc         1 A1L       0.062200
     48 H22        110.9240   115.0220   132.1590 hc         1 A1L       0.062200
     49 H23        110.3090   116.0940   130.1000 ha         1 A1L       0.163000
     50 H24        108.1060   116.9430   129.7630 ha         1 A1L       0.158000
     51 H25        107.4350   115.9350   131.1430 ha         1 A1L       0.158000
     52 O3         110.9810   115.3680   137.2740 os         1 A1L      -0.351100
     53 O4         109.9600   117.8370   137.3020 os         1 A1L      -0.329100
@<TRIPOS>BOND
     1     1     5 1   
     2     1    13 1   
     3     1    26 1   
     4     1    27 1   
     5     2     3 ar  
     6     2     5 ar  
     7     2    12 1   
     8     3     6 ar  
     9     3    28 1   
    10     4     6 ar  
    11     4     8 1   
    12     4     9 ar  
    13     5     9 ar  
    14     6     7 1   
    15     7    10 1   
    16     8    10 1   
    17     9    29 1   
    18    10    30 1   
    19    10    31 1   
    20    11    12 1   
    21    11    26 1   
    22    11    32 1   
    23    11    33 1   
    24    12    34 1   
    25    12    35 1   
    26    13    14 1   
    27    13    23 1   
    28    13    36 1   
    29    14    15 ar  
    30    14    17 ar  
    31    15    16 1   
    32    15    20 ar  
    33    16    26 1   
    34    16    37 1   
    35    16    38 1   
    36    17    18 ar  
    37    17    39 1   
    38    18    19 ar  
    39    18    40 1   
    40    19    20 ar  
    41    19    53 1   
    42    20    52 1   
    43    21    41 1   
    44    21    42 1   
    45    21    43 1   
    46    21    53 1   
    47    22    44 1   
    48    22    45 1   
    49    22    46 1   
    50    22    52 1   
    51    23    24 1   
    52    23    47 1   
    53    23    48 1   
    54    24    25 2   
    55    24    49 1   
    56    25    50 1   
    57    25    51 1   
@<TRIPOS>SUBSTRUCTURE
     1 A1L         1 TEMP              0 ****  ****    0 ROOT
