@<TRIPOS>MOLECULE
A1L
   70    73     1     0     0
SMALL
abcg2


@<TRIPOS>ATOM
      1 C01         12.1170   -13.3180   -28.4560 ca         1 A1L       0.643900
      2 C02         12.8320   -13.4250   -27.2280 ca         1 A1L      -0.252000
      3 C03         14.1750   -13.7260   -27.2070 ca         1 A1L       0.022400
      4 C04         14.8090   -13.8940   -28.4500 ca         1 A1L      -0.279900
      5 C05         14.0180   -13.7260   -29.5900 ca         1 A1L       0.424500
      6 C06         16.1250   -14.1390   -28.9480 cc         1 A1L       0.436900
      7 C08         14.8950   -13.8800   -25.8760 c          1 A1L       0.715600
      8 C09         17.3810   -14.3420   -28.1570 c3         1 A1L      -0.085000
      9 C10         17.8780   -12.9800   -27.6400 c3         1 A1L      -0.063900
     10 C11         18.4620   -15.0960   -28.9330 c3         1 A1L      -0.063900
     11 C12         18.8890   -13.0890   -26.5080 c3         1 A1L      -0.085100
     12 C13         18.1050   -16.5460   -29.2310 c3         1 A1L      -0.085100
     13 C14         15.5650   -13.2700   -32.8830 ca         1 A1L      -0.097500
     14 C15         15.3200   -13.1400   -34.2400 ca         1 A1L      -0.145500
     15 C16         14.0730   -13.4770   -34.7300 ca         1 A1L       0.133000
     16 C17         13.0740   -13.9530   -33.9050 ca         1 A1L      -0.145500
     17 C18         13.3290   -14.0970   -32.5490 ca         1 A1L      -0.097500
     18 C19         14.5730   -13.7470   -32.0290 ca         1 A1L       0.059800
     19 C27          6.0390    -9.3140   -27.6600 c3         1 A1L       0.187600
     20 C28         10.0710   -12.8400   -29.7260 c6         1 A1L       0.200800
     21 C29          9.7810   -11.3500   -29.8620 c6         1 A1L       0.075500
     22 C31          9.7140   -11.1680   -27.4330 c6         1 A1L       0.075500
     23 C32          9.9960   -12.6630   -27.3400 c6         1 A1L       0.200800
     24 C35          5.6830    -8.9240   -26.2360 c3         1 A1L      -0.068700
     25 C36          4.2600    -8.3720   -26.2270 c3         1 A1L      -0.086600
     26 C37          6.6620    -7.9080   -25.6590 c3         1 A1L      -0.086600
     27 N07         10.7670   -13.1130   -28.4820 nh         1 A1L      -0.787300
     28 N21         12.7230   -13.4530   -29.6330 nb         1 A1L      -0.811000
     29 N22         16.1200   -14.1210   -30.2540 nd         1 A1L      -0.567100
     30 N23         14.8480   -13.8800   -30.6610 na         1 A1L       0.036100
     31 N30          9.0610   -10.8690   -28.6960 n          1 A1L      -0.405800
     32 O24         15.2560   -15.0370   -25.6000 o          1 A1L      -0.701000
     33 O25         15.0320   -12.8420   -25.2090 o          1 A1L      -0.701000
     34 O33          7.2780   -10.1110   -29.8880 o          1 A1L      -0.560000
     35 O34          7.3310    -9.9230   -27.6530 os         1 A1L      -0.462100
     36 H1          12.3250   -13.2840   -26.2850 ha         1 A1L       0.124000
     37 H2          17.1070   -14.9410   -27.2830 hc         1 A1L       0.106700
     38 H3          18.3030   -12.4170   -28.4780 hc         1 A1L       0.038950
     39 H4          17.0240   -12.3980   -27.2860 hc         1 A1L       0.038950
     40 H5          18.6860   -14.5650   -29.8620 hc         1 A1L       0.038950
     41 H6          19.3830   -15.0800   -28.3470 hc         1 A1L       0.038950
     42 H7          19.1830   -12.1000   -26.1530 hc         1 A1L       0.028700
     43 H8          18.4630   -13.6290   -25.6600 hc         1 A1L       0.028700
     44 H9          19.7990   -13.6080   -26.8090 hc         1 A1L       0.028700
     45 H10         18.9250   -17.0540   -29.7400 hc         1 A1L       0.028700
     46 H11         17.8990   -17.0940   -28.3100 hc         1 A1L       0.028700
     47 H12         17.2240   -16.6250   -29.8680 hc         1 A1L       0.028700
     48 H13         16.5350   -12.9980   -32.4900 ha         1 A1L       0.142000
     49 H14         16.0900   -12.7700   -34.9030 ha         1 A1L       0.121500
     50 H15         12.1080   -14.2230   -34.3100 ha         1 A1L       0.121500
     51 H16         12.5540   -14.4860   -31.9060 ha         1 A1L       0.142000
     52 H17          6.0400    -8.4260   -28.2980 h1         1 A1L       0.046200
     53 H18          5.3020   -10.0160   -28.0590 h1         1 A1L       0.046200
     54 H19          9.1290   -13.3960   -29.7220 h1         1 A1L       0.064700
     55 H20         10.6610   -13.1850   -30.5690 h1         1 A1L       0.064700
     56 H21         10.7250   -10.8030   -29.9530 h1         1 A1L       0.066450
     57 H22          9.1980   -11.1620   -30.7590 h1         1 A1L       0.066450
     58 H23         10.6570   -10.6140   -27.3770 h1         1 A1L       0.066450
     59 H24          9.0980   -10.8570   -26.5950 h1         1 A1L       0.066450
     60 H25         10.4950   -12.8840   -26.4010 h1         1 A1L       0.064700
     61 H26          9.0490   -13.2100   -27.3290 h1         1 A1L       0.064700
     62 H27          5.7030    -9.8280   -25.6180 hc         1 A1L       0.058700
     63 H28          3.9570    -8.1020   -25.2150 hc         1 A1L       0.035033
     64 H29          4.1850    -7.4740   -26.8450 hc         1 A1L       0.035033
     65 H30          3.5410    -9.1000   -26.6060 hc         1 A1L       0.035033
     66 H31          6.3720    -7.6280   -24.6450 hc         1 A1L       0.035033
     67 H32          7.6810    -8.2940   -25.6120 hc         1 A1L       0.035033
     68 H33          6.6760    -6.9980   -26.2630 hc         1 A1L       0.035033
     69 F20         13.8290   -13.3400   -36.0440 f          1 A1L      -0.194000
     70 C26          7.8460   -10.2920   -28.8280 c          1 A1L       0.647100
@<TRIPOS>BOND
     1     1     2 ar  
     2     1    27 1   
     3     1    28 ar  
     4     2     3 ar  
     5     2    36 1   
     6     3     4 ar  
     7     3     7 1   
     8     4     5 ar  
     9     4     6 1   
    10     5    28 ar  
    11     5    30 1   
    12     6     8 1   
    13     6    29 2   
    14     7    32 1   
    15     7    33 1   
    16     8     9 1   
    17     8    10 1   
    18     8    37 1   
    19     9    11 1   
    20     9    38 1   
    21     9    39 1   
    22    10    12 1   
    23    10    40 1   
    24    10    41 1   
    25    11    42 1   
    26    11    43 1   
    27    11    44 1   
    28    12    45 1   
    29    12    46 1   
    30    12    47 1   
    31    13    14 ar  
    32    13    18 ar  
    33    13    48 1   
    34    14    15 ar  
    35    14    49 1   
    36    15    16 ar  
    37    15    69 1   
    38    16    17 ar  
    39    16    50 1   
    40    17    18 ar  
    41    17    51 1   
    42    18    30 1   
    43    19    24 1   
    44    19    35 1   
    45    19    52 1   
    46    19    53 1   
    47    20    21 1   
    48    20    27 1   
    49    20    54 1   
    50    20    55 1   
    51    21    31 1   
    52    21    56 1   
    53    21    57 1   
    54    22    23 1   
    55    22    31 1   
    56    22    58 1   
    57    22    59 1   
    58    23    27 1   
    59    23    60 1   
    60    23    61 1   
    61    24    25 1   
    62    24    26 1   
    63    24    62 1   
    64    25    63 1   
    65    25    64 1   
    66    25    65 1   
    67    26    66 1   
    68    26    67 1   
    69    26    68 1   
    70    29    30 1   
    71    31    70 1   
    72    34    70 2   
    73    35    70 1   
@<TRIPOS>SUBSTRUCTURE
     1 A1L         1 TEMP              0 ****  ****    0 ROOT
