@<TRIPOS>MOLECULE
A1L
   35    37     1     0     0
SMALL
abcg2


@<TRIPOS>ATOM
      1 C01        102.8970   140.2270   107.2830 ca         1 A1L      -0.113000
      2 C02        102.8260   138.8460   107.5310 ca         1 A1L      -0.070300
      3 C03        101.9040   138.0800   106.8320 ca         1 A1L      -0.072000
      4 C04        101.0770   138.7040   105.9060 ca         1 A1L      -0.181000
      5 C05        101.1470   140.0820   105.6560 ca         1 A1L       0.100400
      6 C06        102.0760   140.8480   106.3640 ca         1 A1L      -0.058000
      7 N07        100.2650   140.5520   104.7190 nc         1 A1L      -0.553100
      8 C08         99.5250   139.6090   104.2390 cd         1 A1L       0.487800
      9 S09         99.8510   138.0110   104.9010 ss         1 A1L      -0.000200
     10 C10         98.5070   139.7990   103.2210 ca         1 A1L      -0.195900
     11 C11         97.6030   138.7960   102.8640 ca         1 A1L      -0.023000
     12 C12         96.6450   138.9940   101.8920 ca         1 A1L      -0.208500
     13 C13         96.5430   140.2260   101.2100 ca         1 A1L       0.362000
     14 C14         97.4550   141.2400   101.5790 ca         1 A1L      -0.208500
     15 C15         98.4020   141.0250   102.5550 ca         1 A1L      -0.023000
     16 N16         95.6130   140.4270   100.2440 nh         1 A1L      -0.827400
     17 C17         94.6890   139.3730    99.8940 c3         1 A1L       0.220100
     18 C18         95.5100   141.7130    99.5910 c3         1 A1L       0.220100
     19 C19        103.7420   138.2190   108.5420 c3         1 A1L      -0.047800
     20 H1         103.6180   140.8220   107.8310 ha         1 A1L       0.114000
     21 H2         101.8330   137.0140   107.0100 ha         1 A1L       0.121000
     22 H3         102.1440   141.9140   106.1860 ha         1 A1L       0.129000
     23 H4          97.6260   137.8310   103.3580 ha         1 A1L       0.121500
     24 H5          95.9690   138.1820   101.6670 ha         1 A1L       0.114500
     25 H6          97.4300   142.2060   101.0960 ha         1 A1L       0.114500
     26 H7          99.0860   141.8260   102.8050 ha         1 A1L       0.121500
     27 H8          94.0400   139.0980   100.7300 h1         1 A1L       0.038200
     28 H9          94.0550   139.7070    99.0780 h1         1 A1L       0.038200
     29 H10         95.2080   138.4710    99.5610 h1         1 A1L       0.038200
     30 H11         96.4250   141.9740    99.0530 h1         1 A1L       0.038200
     31 H12         94.7000   141.6850    98.8690 h1         1 A1L       0.038200
     32 H13         95.2960   142.5170   100.3000 h1         1 A1L       0.038200
     33 H14        104.7890   138.3630   108.2690 hc         1 A1L       0.043033
     34 H15        103.6060   138.6650   109.5280 hc         1 A1L       0.043033
     35 H16        103.5660   137.1490   108.6330 hc         1 A1L       0.043033
@<TRIPOS>BOND
     1     1     2 ar  
     2     1     6 ar  
     3     1    20 1   
     4     2     3 ar  
     5     2    19 1   
     6     3     4 ar  
     7     3    21 1   
     8     4     5 ar  
     9     4     9 1   
    10     5     6 ar  
    11     5     7 1   
    12     6    22 1   
    13     7     8 2   
    14     8     9 1   
    15     8    10 1   
    16    10    11 ar  
    17    10    15 ar  
    18    11    12 ar  
    19    11    23 1   
    20    12    13 ar  
    21    12    24 1   
    22    13    14 ar  
    23    13    16 1   
    24    14    15 ar  
    25    14    25 1   
    26    15    26 1   
    27    16    17 1   
    28    16    18 1   
    29    17    27 1   
    30    17    28 1   
    31    17    29 1   
    32    18    30 1   
    33    18    31 1   
    34    18    32 1   
    35    19    33 1   
    36    19    34 1   
    37    19    35 1   
@<TRIPOS>SUBSTRUCTURE
     1 A1L         1 TEMP              0 ****  ****    0 ROOT
