@<TRIPOS>MOLECULE
A1L
  126   125     1     0     0
SMALL
abcg2


@<TRIPOS>ATOM
      1 C11        169.8480   189.6110   151.3010 c          1 A1L       0.592100
      2 C12        169.6190   188.8100   152.5540 c3         1 A1L      -0.140400
      3 C13        170.3240   189.3700   153.7890 c3         1 A1L      -0.037200
      4 C14        169.9620   188.5840   155.0150 c2         1 A1L      -0.209200
      5 C15        169.6130   189.0570   156.2100 c2         1 A1L      -0.220200
      6 C16        169.5250   190.4960   156.6450 c3         1 A1L      -0.013000
      7 C17        168.1240   190.8920   157.0470 c2         1 A1L      -0.205200
      8 C18        167.5710   190.7180   158.2450 c2         1 A1L      -0.226200
      9 C19        168.2110   190.0650   159.4420 c3         1 A1L      -0.014000
     10 C20        167.3410   188.9680   159.9940 c2         1 A1L      -0.209200
     11 C21        166.8120   188.8880   161.2150 c2         1 A1L      -0.218200
     12 C22        166.9700   189.8720   162.3440 c3         1 A1L      -0.012000
     13 C23        165.6440   190.3950   162.8350 c2         1 A1L      -0.211200
     14 C24        165.1460   191.6120   162.6190 c2         1 A1L      -0.211200
     15 C25        165.7940   192.7150   161.8180 c3         1 A1L      -0.014000
     16 C26        166.4570   193.7410   162.6980 c2         1 A1L      -0.215200
     17 C27        167.7590   194.0070   162.7810 c2         1 A1L      -0.208200
     18 C28        168.8720   193.3510   162.0110 c3         1 A1L      -0.012000
     19 C29        169.8930   194.3310   161.5070 c2         1 A1L      -0.223200
     20 C30        170.3970   194.3950   160.2750 c2         1 A1L      -0.210200
     21 C31        170.0560   193.5300   159.0970 c3         1 A1L      -0.048200
     22 C32        169.9890   194.3210   157.7890 c3         1 A1L      -0.089100
     23 C34        167.9600   189.2950   148.4100 c3         1 A1L       0.152600
     24 C36        166.5680   190.8800   149.5430 c          1 A1L       0.585100
     25 C37        165.5430   191.0000   150.6400 c3         1 A1L      -0.139400
     26 C38        165.0060   192.4100   150.8440 c3         1 A1L      -0.069400
     27 C39        163.9270   192.4540   151.9250 c3         1 A1L      -0.074400
     28 C4         168.3940   191.5610   145.4240 c3         1 A1L       0.216600
     29 C40        163.2610   193.8240   152.0790 c3         1 A1L      -0.068400
     30 C41        164.1530   194.9940   152.5160 c3         1 A1L      -0.073400
     31 C42        164.6200   194.9820   153.9780 c3         1 A1L      -0.072400
     32 C43        165.8720   194.1540   154.2870 c3         1 A1L      -0.075400
     33 C44        166.4040   194.3880   155.7040 c3         1 A1L      -0.077400
     34 C45        165.5380   193.7850   156.8140 c3         1 A1L      -0.077400
     35 C46        165.8900   194.3090   158.2110 c3         1 A1L      -0.077400
     36 C47        165.2990   195.6950   158.4820 c3         1 A1L      -0.074400
     37 C48        165.7180   196.3300   159.8100 c3         1 A1L      -0.073400
     38 C49        167.1760   196.7850   159.8570 c3         1 A1L      -0.078400
     39 C5         166.9150   191.7660   145.1780 c3         1 A1L       0.148800
     40 C50        167.5330   197.5350   161.1390 c3         1 A1L      -0.074400
     41 C51        168.9580   198.0850   161.1340 c3         1 A1L      -0.089100
     42 C8         170.4680   189.1590   148.0400 c3         1 A1L       0.224600
     43 C9         169.3370   189.6230   148.9540 c3         1 A1L       0.111300
     44 N6         166.5530   191.5150   143.7780 n8         1 A1L      -0.977200
     45 O1         171.1410   190.5810   144.5720 o          1 A1L      -0.817000
     46 O10        169.4540   188.9200   150.2140 os         1 A1L      -0.459100
     47 O3         168.7240   190.1700   145.2890 os         1 A1L      -0.603400
     48 O33        170.2850   190.7380   151.2570 o          1 A1L      -0.485000
     49 O52        167.0300   191.7920   148.8960 o          1 A1L      -0.477000
     50 O53        170.2590   188.2150   145.2160 o          1 A1L      -0.817000
     51 P2         170.2740   189.6950   145.4040 p5         1 A1L       1.399800
     52 H1         168.5340   188.7960   152.7080 hc         1 A1L       0.070200
     53 H2         169.9080   187.7740   152.3660 hc         1 A1L       0.070200
     54 H3         171.4060   189.3230   153.6240 hc         1 A1L       0.060700
     55 H4         170.0720   190.4230   153.9080 hc         1 A1L       0.060700
     56 H5         169.9890   187.5040   154.8930 ha         1 A1L       0.166000
     57 H6         169.3620   188.3370   156.9850 ha         1 A1L       0.163000
     58 H7         170.2030   190.6420   157.4900 hc         1 A1L       0.050200
     59 H8         169.8700   191.1610   155.8530 hc         1 A1L       0.050200
     60 H9         167.5250   191.3540   156.2680 ha         1 A1L       0.175000
     61 H10        166.5530   191.0630   158.4000 ha         1 A1L       0.170000
     62 H11        169.1830   189.6480   159.1670 hc         1 A1L       0.049700
     63 H12        168.4030   190.8170   160.2080 hc         1 A1L       0.049700
     64 H13        167.1190   188.1680   159.2930 ha         1 A1L       0.171000
     65 H14        166.1900   188.0260   161.4430 ha         1 A1L       0.166000
     66 H15        167.4590   189.3590   163.1810 hc         1 A1L       0.049700
     67 H16        167.6250   190.6900   162.0600 hc         1 A1L       0.049700
     68 H17        165.0510   189.6950   163.4170 ha         1 A1L       0.165000
     69 H18        164.1840   191.8560   163.0620 ha         1 A1L       0.165000
     70 H19        166.5000   192.3020   161.1020 hc         1 A1L       0.052700
     71 H20        165.0120   193.2120   161.2350 hc         1 A1L       0.052700
     72 H21        165.7820   194.3010   163.3400 ha         1 A1L       0.165000
     73 H22        168.0760   194.7730   163.4850 ha         1 A1L       0.165000
     74 H23        168.4780   192.7600   161.1890 hc         1 A1L       0.051700
     75 H24        169.3800   192.6430   162.6820 hc         1 A1L       0.051700
     76 H25        170.2510   195.0450   162.2440 ha         1 A1L       0.164000
     77 H26        171.1470   195.1590   160.0810 ha         1 A1L       0.165000
     78 H27        169.1110   193.0100   159.2560 hc         1 A1L       0.046200
     79 H28        170.8150   192.7450   158.9930 hc         1 A1L       0.046200
     80 H29        169.7480   193.6650   156.9510 hc         1 A1L       0.036033
     81 H30        169.2240   195.0970   157.8390 hc         1 A1L       0.036033
     82 H31        170.9450   194.8060   157.5770 hc         1 A1L       0.036033
     83 H32        167.7840   189.8310   147.4830 h1         1 A1L       0.094700
     84 H33        167.8690   188.2240   148.2340 h1         1 A1L       0.094700
     85 H34        164.7330   190.3000   150.4130 hc         1 A1L       0.064700
     86 H35        166.0100   190.6250   151.5560 hc         1 A1L       0.064700
     87 H36        165.8310   193.0760   151.1010 hc         1 A1L       0.054700
     88 H37        164.5890   192.7800   149.9030 hc         1 A1L       0.054700
     89 H38        163.1510   191.7240   151.6720 hc         1 A1L       0.035200
     90 H39        164.3510   192.1250   152.8780 hc         1 A1L       0.035200
     91 H40        168.6430   191.8960   146.4340 h1         1 A1L       0.031700
     92 H41        168.9840   192.1450   144.7120 h1         1 A1L       0.031700
     93 H42        162.4360   193.7350   152.7940 hc         1 A1L       0.033200
     94 H43        162.8040   194.0830   151.1180 hc         1 A1L       0.033200
     95 H44        165.0220   195.0750   151.8550 hc         1 A1L       0.039700
     96 H45        163.5750   195.9090   152.3580 hc         1 A1L       0.039700
     97 H46        164.8360   196.0150   154.2730 hc         1 A1L       0.031700
     98 H47        163.7880   194.6570   154.6120 hc         1 A1L       0.031700
     99 H48        165.6780   193.0880   154.1450 hc         1 A1L       0.044200
    100 H49        166.6500   194.4230   153.5650 hc         1 A1L       0.044200
    101 H50        167.4120   193.9710   155.7900 hc         1 A1L       0.037700
    102 H51        166.5060   195.4670   155.8620 hc         1 A1L       0.037700
    103 H52        164.4810   193.9920   156.6210 hc         1 A1L       0.037200
    104 H53        165.6440   192.6970   156.7860 hc         1 A1L       0.037200
    105 H54        165.5150   193.6170   158.9690 hc         1 A1L       0.039200
    106 H55        166.9770   194.3290   158.3280 hc         1 A1L       0.039200
    107 H56        165.5690   196.3770   157.6680 hc         1 A1L       0.036700
    108 H57        164.2080   195.6080   158.4550 hc         1 A1L       0.036700
    109 H58        165.0780   197.2000   159.9990 hc         1 A1L       0.034700
    110 H59        165.5290   195.6280   160.6300 hc         1 A1L       0.034700
    111 H60        167.8430   195.9260   159.7510 hc         1 A1L       0.041200
    112 H61        167.3710   197.4350   158.9950 hc         1 A1L       0.041200
    113 H62        166.6720   192.7840   145.5120 h1         1 A1L       0.019200
    114 H63        166.3490   191.0780   145.8100 h1         1 A1L       0.019200
    115 H64        166.8250   198.3590   161.2810 hc         1 A1L       0.033700
    116 H65        167.4010   196.8640   161.9930 hc         1 A1L       0.033700
    117 H66        169.1900   198.6020   162.0680 hc         1 A1L       0.030367
    118 H67        169.6840   197.2800   161.0060 hc         1 A1L       0.030367
    119 H68        169.0990   198.7950   160.3150 hc         1 A1L       0.030367
    120 H69        170.2810   188.1480   147.6720 h1         1 A1L       0.046200
    121 H70        171.3900   189.1530   148.6230 h1         1 A1L       0.046200
    122 H71        169.4380   190.6900   149.1370 h1         1 A1L       0.094700
    123 H72        165.5500   191.6150   143.6620 hn         1 A1L       0.374500
    124 H73        166.9760   192.2240   143.1870 hn         1 A1L       0.374500
    125 O35        166.9280   189.5950   149.3710 os         1 A1L      -0.462100
    126 O7         170.6500   190.0610   146.9530 os         1 A1L      -0.611400
@<TRIPOS>BOND
     1     1     2 1   
     2     1    46 1   
     3     1    48 2   
     4     2     3 1   
     5     2    52 1   
     6     2    53 1   
     7     3     4 1   
     8     3    54 1   
     9     3    55 1   
    10     4     5 2   
    11     4    56 1   
    12     5     6 1   
    13     5    57 1   
    14     6     7 1   
    15     6    58 1   
    16     6    59 1   
    17     7     8 2   
    18     7    60 1   
    19     8     9 1   
    20     8    61 1   
    21     9    10 1   
    22     9    62 1   
    23     9    63 1   
    24    10    11 2   
    25    10    64 1   
    26    11    12 1   
    27    11    65 1   
    28    12    13 1   
    29    12    66 1   
    30    12    67 1   
    31    13    14 2   
    32    13    68 1   
    33    14    15 1   
    34    14    69 1   
    35    15    16 1   
    36    15    70 1   
    37    15    71 1   
    38    16    17 2   
    39    16    72 1   
    40    17    18 1   
    41    17    73 1   
    42    18    19 1   
    43    18    74 1   
    44    18    75 1   
    45    19    20 2   
    46    19    76 1   
    47    20    21 1   
    48    20    77 1   
    49    21    22 1   
    50    21    78 1   
    51    21    79 1   
    52    22    80 1   
    53    22    81 1   
    54    22    82 1   
    55    23    43 1   
    56    23    83 1   
    57    23    84 1   
    58    23   125 1   
    59    24    25 1   
    60    24    49 2   
    61    24   125 1   
    62    25    26 1   
    63    25    85 1   
    64    25    86 1   
    65    26    27 1   
    66    26    87 1   
    67    26    88 1   
    68    27    29 1   
    69    27    89 1   
    70    27    90 1   
    71    28    39 1   
    72    28    47 1   
    73    28    91 1   
    74    28    92 1   
    75    29    30 1   
    76    29    93 1   
    77    29    94 1   
    78    30    31 1   
    79    30    95 1   
    80    30    96 1   
    81    31    32 1   
    82    31    97 1   
    83    31    98 1   
    84    32    33 1   
    85    32    99 1   
    86    32   100 1   
    87    33    34 1   
    88    33   101 1   
    89    33   102 1   
    90    34    35 1   
    91    34   103 1   
    92    34   104 1   
    93    35    36 1   
    94    35   105 1   
    95    35   106 1   
    96    36    37 1   
    97    36   107 1   
    98    36   108 1   
    99    37    38 1   
   100    37   109 1   
   101    37   110 1   
   102    38    40 1   
   103    38   111 1   
   104    38   112 1   
   105    39    44 1   
   106    39   113 1   
   107    39   114 1   
   108    40    41 1   
   109    40   115 1   
   110    40   116 1   
   111    41   117 1   
   112    41   118 1   
   113    41   119 1   
   114    42    43 1   
   115    42   120 1   
   116    42   121 1   
   117    42   126 1   
   118    43    46 1   
   119    43   122 1   
   120    44   123 1   
   121    44   124 1   
   122    45    51 1   
   123    47    51 1   
   124    50    51 1   
   125    51   126 1   
@<TRIPOS>SUBSTRUCTURE
     1 A1L         1 TEMP              0 ****  ****    0 ROOT
