@<TRIPOS>MOLECULE
A1L
   46    46     1     0     0
SMALL
abcg2


@<TRIPOS>ATOM
      1 C10          5.1820     8.4640    28.9410 ce         1 A1L      -0.142000
      2 C13          4.2860    10.1230    26.6250 ce         1 A1L      -0.213000
      3 C15          4.2440    12.2810    25.4730 cf         1 A1L      -0.307200
      4 C17          2.5570     8.3100    26.3140 c3         1 A1L      -0.060900
      5 C01          6.0540     6.9610    32.3560 c6         1 A1L      -0.106400
      6 C02          7.4260     6.4120    32.0180 c6         1 A1L       0.173300
      7 C03          7.3730     5.7680    30.6490 c6         1 A1L      -0.044200
      8 C04          6.6800     6.6120    29.6100 c2         1 A1L      -0.085400
      9 C05          5.8630     7.6310    29.9380 ce         1 A1L      -0.092200
     10 C06          5.6120     8.0590    31.3840 c6         1 A1L       0.004200
     11 C07          4.1150     8.3060    31.6100 c3         1 A1L      -0.083100
     12 C08          6.3740     9.3610    31.6770 c3         1 A1L      -0.083100
     13 C09          7.0010     6.1910    28.2060 c3         1 A1L      -0.058900
     14 C11          4.4670     8.0330    27.8920 cf         1 A1L      -0.203000
     15 C12          3.7920     8.8990    26.9250 cf         1 A1L      -0.033200
     16 C14          3.6920    11.0800    25.7330 ce         1 A1L      -0.110000
     17 C16          3.6710    13.2790    24.5650 c          1 A1L       0.568300
     18 O02          4.2590    14.3280    24.3660 o          1 A1L      -0.526100
     19 C18          2.3560    12.9810    23.8910 c3         1 A1L      -0.198100
     20 H1           5.2110     9.5350    29.1240 ha         1 A1L       0.175000
     21 H3           5.2250    10.4210    27.0790 ha         1 A1L       0.180000
     22 H5           5.1810    12.5580    25.9460 ha         1 A1L       0.194000
     23 H7           1.8090     8.1130    27.0850 hc         1 A1L       0.045700
     24 H8           2.0990     8.9360    25.5540 hc         1 A1L       0.045700
     25 H9           2.7910     7.3470    25.8560 hc         1 A1L       0.045700
     26 H10          6.0380     7.3630    33.3750 hc         1 A1L       0.048700
     27 H11          5.3330     6.1350    32.3290 hc         1 A1L       0.048700
     28 H12          8.1450     7.2410    31.9820 h1         1 A1L       0.033700
     29 H13          6.8490     4.8060    30.7230 hc         1 A1L       0.061700
     30 H14          8.3840     5.5310    30.3040 hc         1 A1L       0.061700
     31 H17          7.9400     5.8550    33.8050 ho         1 A1L       0.443000
     32 H18          3.9290     8.5410    32.6600 hc         1 A1L       0.036033
     33 H19          3.7410     9.1420    31.0160 hc         1 A1L       0.036033
     34 H20          3.5270     7.4230    31.3540 hc         1 A1L       0.036033
     35 H21          6.1850     9.6890    32.7020 hc         1 A1L       0.036033
     36 H22          7.4510     9.2390    31.5560 hc         1 A1L       0.036033
     37 H23          6.0610    10.1720    31.0180 hc         1 A1L       0.036033
     38 H24          8.0730     6.0110    28.1050 hc         1 A1L       0.044700
     39 H25          6.5060     5.2480    27.9590 hc         1 A1L       0.044700
     40 H26          6.7080     6.9200    27.4550 hc         1 A1L       0.044700
     41 H27          4.3150     6.9650    27.7580 ha         1 A1L       0.179000
     42 H30          2.7560    10.8180    25.2530 ha         1 A1L       0.171000
     43 H32          2.0530    13.8200    23.2690 hc         1 A1L       0.059033
     44 H33          2.4300    12.0910    23.2640 hc         1 A1L       0.059033
     45 H34          1.5730    12.7900    24.6260 hc         1 A1L       0.059033
     46 O01          7.8630     5.4350    32.9420 oh         1 A1L      -0.660000
@<TRIPOS>BOND
     1     1     9 1   
     2     1    14 2   
     3     1    20 1   
     4     2    15 2   
     5     2    16 1   
     6     2    21 1   
     7     3    16 2   
     8     3    17 1   
     9     3    22 1   
    10     4    15 1   
    11     4    23 1   
    12     4    24 1   
    13     4    25 1   
    14     5     6 1   
    15     5    10 1   
    16     5    26 1   
    17     5    27 1   
    18     6     7 1   
    19     6    28 1   
    20     6    46 1   
    21     7     8 1   
    22     7    29 1   
    23     7    30 1   
    24     8     9 2   
    25     8    13 1   
    26     9    10 1   
    27    10    11 1   
    28    10    12 1   
    29    11    32 1   
    30    11    33 1   
    31    11    34 1   
    32    12    35 1   
    33    12    36 1   
    34    12    37 1   
    35    13    38 1   
    36    13    39 1   
    37    13    40 1   
    38    14    15 1   
    39    14    41 1   
    40    16    42 1   
    41    17    18 2   
    42    17    19 1   
    43    19    43 1   
    44    19    44 1   
    45    19    45 1   
    46    31    46 1   
@<TRIPOS>SUBSTRUCTURE
     1 A1L         1 TEMP              0 ****  ****    0 ROOT
