@<TRIPOS>MOLECULE
A1L
   75    79     1     0     0
SMALL
abcg2


@<TRIPOS>ATOM
      1 CAZ        -62.2680    19.5950     8.2820 c3         1 A1L      -0.048800
      2 CAX        -61.7610    20.1940     9.5600 ca         1 A1L      -0.037300
      3 CAW        -62.5930    20.9620    10.3690 ca         1 A1L      -0.155500
      4 CAV        -62.0900    21.4940    11.5390 ca         1 A1L       0.177000
      5 FAY        -62.8960    22.2440    12.3100 f          1 A1L      -0.178000
      6 CAU        -60.7890    21.2860    11.9460 ca         1 A1L      -0.155500
      7 CAT        -59.9390    20.5180    11.1570 ca         1 A1L      -0.037300
      8 CBA        -58.5300    20.2530    11.5930 c3         1 A1L      -0.048800
      9 CAS        -60.4460    19.9870     9.9720 ca         1 A1L       0.067100
     10 OAR        -59.6470    19.1800     9.1970 os         1 A1L      -0.237200
     11 CAQ        -58.8190    19.7320     8.2710 ca         1 A1L       0.164100
     12 CAP        -58.7030    21.0990     8.0650 ca         1 A1L      -0.191000
     13 CAO        -57.8480    21.5820     7.0850 ca         1 A1L      -0.062000
     14 CAN        -57.0880    20.7270     6.2930 ca         1 A1L      -0.151300
     15 CBB        -56.1770    21.2570     5.1880 c3         1 A1L       0.237300
     16 CBC        -55.3730    22.4720     5.6550 c3         1 A1L      -0.098600
     17 CBD        -57.0330    21.6260     3.9780 c3         1 A1L      -0.098600
     18 OBE        -55.2890    20.2490     4.7430 oh         1 A1L      -0.659000
     19 CAM        -57.2250    19.3600     6.5130 ca         1 A1L      -0.061000
     20 CAJ        -58.0780    18.8440     7.4860 ca         1 A1L      -0.067800
     21 CAF        -58.2350    17.3870     7.6410 cc         1 A1L      -0.212000
     22 CAE        -58.5880    16.5840     6.5980 cd         1 A1L      -0.011400
     23 NAD        -58.7660    15.2360     6.6950 n          1 A1L      -0.285000
     24 CAL        -59.1510    14.4810     5.5090 c3         1 A1L       0.079300
     25 CAC        -58.6310    14.5140     7.8790 c          1 A1L       0.597600
     26 OAK        -58.8210    13.3050     7.9080 o          1 A1L      -0.545000
     27 CAB        -58.2620    15.3330     8.9940 cd         1 A1L      -0.271600
     28 CAI        -58.0220    15.0400    10.3710 cd         1 A1L      -0.078000
     29 CAA        -58.0630    16.6860     8.8530 cc         1 A1L       0.305800
     30 OAG        -57.7030    17.2240    10.0160 os         1 A1L      -0.214000
     31 CAH        -57.7000    16.2190    10.9500 cc         1 A1L       0.180500
     32 CBF        -57.4960    16.6210    12.3220 cc         1 A1L      -0.233500
     33 NBG        -56.3610    17.2160    12.8070 na         1 A1L      -0.280500
     34 CBH        -56.5820    17.5440    14.0980 cc         1 A1L       0.413800
     35 CBK        -55.5760    18.2450    14.9430 c3         1 A1L      -0.108700
     36 CBL        -55.3280    19.6820    14.4840 c3         1 A1L      -0.091100
     37 NBI        -57.7940    17.1970    14.4640 nd         1 A1L      -0.661000
     38 CBJ        -58.3780    16.6270    13.3720 cd         1 A1L       0.278300
     39 CBM        -59.8120    16.2380    13.3400 c3         1 A1L       0.136300
     40 OBN        -60.5640    17.3820    12.9950 os         1 A1L      -0.445000
     41 CBO        -61.9360    17.1160    12.8710 c3         1 A1L       0.146900
     42 H1         -62.1550    18.5100     8.2750 hc         1 A1L       0.051533
     43 H2         -63.3230    19.8230     8.1410 hc         1 A1L       0.051533
     44 H3         -61.7280    19.9800     7.4150 hc         1 A1L       0.051533
     45 H4         -63.6220    21.1420    10.0830 ha         1 A1L       0.134000
     46 H5         -60.4330    21.7170    12.8740 ha         1 A1L       0.134000
     47 H6         -57.8020    20.5240    10.8280 hc         1 A1L       0.051533
     48 H7         -58.2930    20.8190    12.4930 hc         1 A1L       0.051533
     49 H8         -58.3860    19.1970    11.8180 hc         1 A1L       0.051533
     50 H9         -59.2820    21.7980     8.6560 ha         1 A1L       0.131000
     51 H10        -57.7900    22.6550     6.9500 ha         1 A1L       0.113000
     52 H11        -54.7590    22.2290     6.5260 hc         1 A1L       0.043533
     53 H12        -54.7150    22.8060     4.8530 hc         1 A1L       0.043533
     54 H13        -56.0110    23.3130     5.9240 hc         1 A1L       0.043533
     55 H14        -57.7560    22.3980     4.2400 hc         1 A1L       0.043533
     56 H15        -56.4110    22.0100     3.1670 hc         1 A1L       0.043533
     57 H16        -57.5850    20.7600     3.6110 hc         1 A1L       0.043533
     58 H17        -54.6630    20.0580     5.4510 ho         1 A1L       0.444000
     59 H18        -56.6550    18.6590     5.9190 ha         1 A1L       0.125000
     60 H19        -58.7640    17.0050     5.6180 h4         1 A1L       0.206000
     61 H20        -60.1180    14.0040     5.6540 h1         1 A1L       0.054367
     62 H21        -59.2190    15.1580     4.6640 h1         1 A1L       0.054367
     63 H22        -58.4110    13.7150     5.2870 h1         1 A1L       0.054367
     64 H23        -58.0850    14.0840    10.8660 ha         1 A1L       0.159000
     65 H24        -55.5030    17.3600    12.2960 hn         1 A1L       0.358000
     66 H25        -55.9440    18.2370    15.9680 hc         1 A1L       0.064700
     67 H26        -54.6350    17.6890    14.9390 hc         1 A1L       0.064700
     68 H27        -54.6120    20.1730    15.1420 hc         1 A1L       0.039033
     69 H28        -54.9240    19.7140    13.4720 hc         1 A1L       0.039033
     70 H29        -56.2510    20.2630    14.4960 hc         1 A1L       0.039033
     71 H31        -59.9750    15.4350    12.6110 h1         1 A1L       0.036700
     72 H32        -60.1180    15.8490    14.3210 h1         1 A1L       0.036700
     73 H33        -62.4290    18.0410    12.5720 h1         1 A1L       0.027700
     74 H34        -62.1410    16.3530    12.1100 h1         1 A1L       0.027700
     75 H35        -62.3810    16.7760    13.8150 h1         1 A1L       0.027700
@<TRIPOS>BOND
     1     1     2 1   
     2     1    42 1   
     3     1    43 1   
     4     1    44 1   
     5     2     3 ar  
     6     2     9 ar  
     7     3     4 ar  
     8     3    45 1   
     9     4     5 1   
    10     4     6 ar  
    11     6     7 ar  
    12     6    46 1   
    13     7     8 1   
    14     7     9 ar  
    15     8    47 1   
    16     8    48 1   
    17     8    49 1   
    18     9    10 1   
    19    10    11 1   
    20    11    12 ar  
    21    11    20 ar  
    22    12    13 ar  
    23    12    50 1   
    24    13    14 ar  
    25    13    51 1   
    26    14    15 1   
    27    14    19 ar  
    28    15    16 1   
    29    15    17 1   
    30    15    18 1   
    31    16    52 1   
    32    16    53 1   
    33    16    54 1   
    34    17    55 1   
    35    17    56 1   
    36    17    57 1   
    37    18    58 1   
    38    19    20 ar  
    39    19    59 1   
    40    20    21 1   
    41    21    22 2   
    42    21    29 1   
    43    22    23 1   
    44    22    60 1   
    45    23    24 1   
    46    23    25 1   
    47    24    61 1   
    48    24    62 1   
    49    24    63 1   
    50    25    26 2   
    51    25    27 1   
    52    27    28 1   
    53    27    29 2   
    54    28    31 2   
    55    28    64 1   
    56    29    30 1   
    57    30    31 1   
    58    31    32 1   
    59    32    33 1   
    60    32    38 2   
    61    33    34 1   
    62    33    65 1   
    63    34    35 1   
    64    34    37 2   
    65    35    36 1   
    66    35    66 1   
    67    35    67 1   
    68    36    68 1   
    69    36    69 1   
    70    36    70 1   
    71    37    38 1   
    72    38    39 1   
    73    39    40 1   
    74    39    71 1   
    75    39    72 1   
    76    40    41 1   
    77    41    73 1   
    78    41    74 1   
    79    41    75 1   
@<TRIPOS>SUBSTRUCTURE
     1 A1L         1 TEMP              0 ****  ****    0 ROOT
