@<TRIPOS>MOLECULE
A1L
   42    44     1     0     0
SMALL
abcg2


@<TRIPOS>ATOM
      1 N1          11.6410   -12.4160    -3.2930 n          1 A1L      -0.397800
      2 C4           9.3100   -13.1980    -1.8140 ca         1 A1L      -0.069300
      3 C5           9.3060   -11.9720    -2.6680 c6         1 A1L      -0.053100
      4 C6          10.4460   -15.2530    -1.2800 ca         1 A1L      -0.079000
      5 C7           9.5240   -15.5240    -0.2680 cp         1 A1L      -0.045000
      6 C8           8.5000   -14.6050    -0.0360 ca         1 A1L      -0.089000
      7 C10         12.7490   -12.1450    -4.0060 c          1 A1L       0.576100
      8 C13          9.6250   -16.7580     0.5350 cp         1 A1L       0.000000
      9 C15          9.4120   -17.9150     2.6510 ca         1 A1L      -0.059500
     10 C17         10.0800   -19.1290     0.6890 ca         1 A1L      -0.059500
     11 C1          10.7200   -11.4130    -2.7560 c6         1 A1L       0.117000
     12 C11         13.2890   -10.7220    -4.1210 c3         1 A1L       0.119300
     13 C12         12.7620   -10.0100    -5.3480 c3         1 A1L      -0.119100
     14 C14          9.3370   -16.7530     1.9000 ca         1 A1L      -0.109000
     15 C16          9.7830   -19.1090     2.0470 ca         1 A1L      -0.197300
     16 C18         10.0020   -17.9660    -0.0550 ca         1 A1L      -0.109000
     17 C19          9.8110   -20.3890     2.8180 c3         1 A1L       0.357300
     18 C2          11.2850   -13.8340    -3.1800 c6         1 A1L       0.142300
     19 C3          10.3400   -14.1050    -2.0490 ca         1 A1L      -0.095300
     20 C9           8.3980   -13.4510    -0.7980 ca         1 A1L      -0.101000
     21 F1          10.8790   -21.1380     2.5110 f          1 A1L      -0.114000
     22 F2           9.8370   -20.1950     4.1400 f          1 A1L      -0.114000
     23 F3           8.7300   -21.1420     2.5570 f          1 A1L      -0.114000
     24 F4          13.0380    -9.9630    -2.9800 f          1 A1L      -0.264000
     25 O1          13.3730   -13.0130    -4.6040 o          1 A1L      -0.605100
     26 H52          8.6500   -11.2040    -2.2580 hc         1 A1L       0.062200
     27 H51          8.9360   -12.2020    -3.6730 hc         1 A1L       0.062200
     28 H61         11.2680   -15.9380    -1.4580 ha         1 A1L       0.121000
     29 H81          7.7640   -14.7970     0.7350 ha         1 A1L       0.118000
     30 H151         9.1830   -17.8690     3.7070 ha         1 A1L       0.130500
     31 H171        10.3660   -20.0490     0.1960 ha         1 A1L       0.130500
     32 H11         11.0330   -11.0950    -1.7600 h1         1 A1L       0.056700
     33 H12         10.7050   -10.5360    -3.3980 h1         1 A1L       0.056700
     34 H111        14.3730   -10.8240    -4.1920 h1         1 A1L       0.083700
     35 H122        13.2170    -9.0240    -5.4370 hc         1 A1L       0.054700
     36 H123        13.0240   -10.5800    -6.2390 hc         1 A1L       0.054700
     37 H121        11.6790    -9.8930    -5.3270 hc         1 A1L       0.054700
     38 H141         9.0660   -15.8280     2.3930 ha         1 A1L       0.123000
     39 H181        10.2150   -18.0090    -1.1150 ha         1 A1L       0.123000
     40 H23         10.8260   -14.1700    -4.1180 h1         1 A1L       0.066200
     41 H22         12.1940   -14.4200    -3.0530 h1         1 A1L       0.066200
     42 H91          7.6000   -12.7460    -0.6040 ha         1 A1L       0.117000
@<TRIPOS>BOND
     1     1     7 1   
     2     1    11 1   
     3     1    18 1   
     4     2     3 1   
     5     2    19 ar  
     6     2    20 ar  
     7     3    11 1   
     8     3    26 1   
     9     3    27 1   
    10     4     5 ar  
    11     4    19 ar  
    12     4    28 1   
    13     5     6 ar  
    14     5     8 1   
    15     6    20 ar  
    16     6    29 1   
    17     7    12 1   
    18     7    25 2   
    19     8    14 ar  
    20     8    16 ar  
    21     9    14 ar  
    22     9    15 ar  
    23     9    30 1   
    24    10    15 ar  
    25    10    16 ar  
    26    10    31 1   
    27    11    32 1   
    28    11    33 1   
    29    12    13 1   
    30    12    24 1   
    31    12    34 1   
    32    13    35 1   
    33    13    36 1   
    34    13    37 1   
    35    14    38 1   
    36    15    17 1   
    37    16    39 1   
    38    17    21 1   
    39    17    22 1   
    40    17    23 1   
    41    18    19 1   
    42    18    40 1   
    43    18    41 1   
    44    20    42 1   
@<TRIPOS>SUBSTRUCTURE
     1 A1L         1 TEMP              0 ****  ****    0 ROOT
