@<TRIPOS>MOLECULE
A1L
   62    67     1     0     0
SMALL
abcg2


@<TRIPOS>ATOM
      1 C1         124.0850   127.6350   135.7290 ca         1 A1L      -0.040000
      2 C2         122.6740   127.7650   135.6810 ca         1 A1L      -0.031000
      3 C3         122.0110   127.6200   134.4400 ca         1 A1L      -0.101000
      4 C4         122.7190   127.3550   133.3000 ca         1 A1L      -0.100000
      5 C5         124.1230   127.2240   133.3470 ca         1 A1L      -0.105000
      6 C6         124.7910   127.3620   134.5330 ca         1 A1L      -0.094000
      7 C10        121.9760   128.0330   136.8820 ca         1 A1L      -0.096000
      8 C12        124.7820   128.1540   139.4430 c3         1 A1L       0.285800
      9 C21        124.9300   126.6020   141.4380 cc         1 A1L       0.432000
     10 C23        126.6790   126.5490   143.0660 cc         1 A1L       0.494500
     11 C25        124.7960   125.3940   143.5370 cd         1 A1L       0.707900
     12 C26        124.2140   125.8100   142.3170 cd         1 A1L      -0.400000
     13 C28        124.6220   124.3330   145.7300 c6         1 A1L       0.215800
     14 C29        123.4690   124.1560   146.7000 c6         1 A1L       0.095500
     15 C31        122.5810   122.7580   144.8660 c6         1 A1L       0.095500
     16 C32        122.8390   124.0100   144.0470 c6         1 A1L       0.215800
     17 C34        128.1010   127.7190   142.0470 cd         1 A1L       0.592300
     18 C36        129.3520   128.4410   141.7830 cx         1 A1L      -0.147000
     19 C37        129.3160   129.7690   141.0720 cx         1 A1L      -0.115400
     20 C38        129.8710   128.5760   140.3770 cx         1 A1L      -0.115400
     21 C39        121.9480   122.3390   147.2250 c          1 A1L       0.643100
     22 C42        124.4550   129.4510   140.1750 c3         1 A1L      -0.115100
     23 C7         124.7460   127.7720   136.9720 ca         1 A1L      -0.066000
     24 C8         124.0540   128.0320   138.1250 ca         1 A1L      -0.108300
     25 C9         122.6450   128.1640   138.0660 ca         1 A1L      -0.110000
     26 N13        124.4460   126.9660   140.2370 nu         1 A1L      -0.942200
     27 N22        126.1790   126.9530   141.8470 na         1 A1L       0.020900
     28 N24        126.0180   125.7770   143.9080 nc         1 A1L      -0.780000
     29 N27        124.1210   124.5940   144.3900 nh         1 A1L      -0.785300
     30 N30        122.6270   123.0500   146.2850 n          1 A1L      -0.436800
     31 N33        127.1040   127.6930   141.1900 nc         1 A1L      -0.634100
     32 N35        127.9020   127.0430   143.1960 nd         1 A1L      -0.417300
     33 N40        121.2810   121.2320   146.7790 nt         1 A1L      -0.591000
     34 O41        121.9030   122.6930   148.3990 o          1 A1L      -0.634100
     35 H1         120.9320   127.7210   134.4060 ha         1 A1L       0.115000
     36 H2         122.2030   127.2430   132.3550 ha         1 A1L       0.115000
     37 H3         124.6710   127.0130   132.4380 ha         1 A1L       0.116000
     38 H4         125.8690   127.2610   134.5720 ha         1 A1L       0.117000
     39 H5         120.8980   128.1350   136.8510 ha         1 A1L       0.116000
     40 H6         125.8510   128.1330   139.2410 h1         1 A1L       0.098700
     41 H7         123.1970   125.5580   142.0560 ha         1 A1L       0.130000
     42 H8         125.2630   123.4450   145.7450 h1         1 A1L       0.064450
     43 H9         125.2290   125.1730   146.0590 h1         1 A1L       0.064450
     44 H10        123.8810   123.9550   147.6880 h1         1 A1L       0.058200
     45 H11        122.9010   125.0890   146.7700 h1         1 A1L       0.058200
     46 H12        121.5910   122.3930   144.5890 h1         1 A1L       0.058200
     47 H13        123.3060   121.9840   144.5890 h1         1 A1L       0.058200
     48 H14        122.0210   124.7240   144.1930 h1         1 A1L       0.064450
     49 H15        122.8320   123.7130   142.9980 h1         1 A1L       0.064450
     50 H16        130.0880   128.3270   142.5690 hc         1 A1L       0.103700
     51 H17        130.0020   130.5330   141.4140 hc         1 A1L       0.075200
     52 H18        128.3470   130.1370   140.7620 hc         1 A1L       0.075200
     53 H19        129.2840   128.1250   139.5860 hc         1 A1L       0.075200
     54 H20        130.9420   128.5100   140.2370 hc         1 A1L       0.075200
     55 H21        125.0510   129.5390   141.0830 hc         1 A1L       0.048700
     56 H22        124.6870   130.3070   139.5410 hc         1 A1L       0.048700
     57 H23        123.4020   129.5070   140.4530 hc         1 A1L       0.048700
     58 H24        125.8250   127.6630   137.0020 ha         1 A1L       0.121000
     59 H25        122.0840   128.3720   138.9700 ha         1 A1L       0.110000
     60 H26        123.5130   126.6140   140.0790 hn         1 A1L       0.486000
     61 H27        120.9100   120.6420   147.5060 hn         1 A1L       0.299500
     62 H28        121.6150   120.7220   145.9780 hn         1 A1L       0.299500
@<TRIPOS>BOND
     1     1     2 ar  
     2     1     6 ar  
     3     1    23 ar  
     4     2     3 ar  
     5     2     7 ar  
     6     3     4 ar  
     7     3    35 1   
     8     4     5 ar  
     9     4    36 1   
    10     5     6 ar  
    11     5    37 1   
    12     6    38 1   
    13     7    25 ar  
    14     7    39 1   
    15     8    22 1   
    16     8    24 1   
    17     8    26 1   
    18     8    40 1   
    19     9    12 2   
    20     9    26 1   
    21     9    27 1   
    22    10    27 1   
    23    10    28 1   
    24    10    32 2   
    25    11    12 1   
    26    11    28 2   
    27    11    29 1   
    28    12    41 1   
    29    13    14 1   
    30    13    29 1   
    31    13    42 1   
    32    13    43 1   
    33    14    30 1   
    34    14    44 1   
    35    14    45 1   
    36    15    16 1   
    37    15    30 1   
    38    15    46 1   
    39    15    47 1   
    40    16    29 1   
    41    16    48 1   
    42    16    49 1   
    43    17    18 1   
    44    17    31 2   
    45    17    32 1   
    46    18    19 1   
    47    18    20 1   
    48    18    50 1   
    49    19    20 1   
    50    19    51 1   
    51    19    52 1   
    52    20    53 1   
    53    20    54 1   
    54    21    30 1   
    55    21    33 1   
    56    21    34 2   
    57    22    55 1   
    58    22    56 1   
    59    22    57 1   
    60    23    24 ar  
    61    23    58 1   
    62    24    25 ar  
    63    25    59 1   
    64    26    60 1   
    65    27    31 1   
    66    33    61 1   
    67    33    62 1   
@<TRIPOS>SUBSTRUCTURE
     1 A1L         1 TEMP              0 ****  ****    0 ROOT
