@<TRIPOS>MOLECULE
A1L
   22    23     1     0     0
SMALL
abcg2


@<TRIPOS>ATOM
      1 C1         -50.6130   -57.2300    21.4680 ca         1 A1L      -0.024000
      2 C10        -48.5730   -56.4250    23.4710 c3         1 A1L       0.197800
      3 C2         -51.5620   -57.6090    20.5480 ca         1 A1L      -0.172000
      4 C3         -52.8690   -57.1120    20.6510 ca         1 A1L       0.191100
      5 C4         -53.2000   -56.2350    21.6740 ca         1 A1L      -0.242000
      6 C5         -52.2240   -55.8660    22.5870 ca         1 A1L       0.218100
      7 C6         -50.9160   -56.3490    22.5150 ca         1 A1L      -0.190800
      8 C7         -51.7460   -54.5570    24.5200 c          1 A1L       0.670300
      9 C8         -50.3910   -55.0510    24.4740 cc         1 A1L      -0.307200
     10 C9         -49.9780   -55.9110    23.5200 cd         1 A1L       0.030600
     11 O1         -52.6000   -55.0080    23.5600 os         1 A1L      -0.340200
     12 O2         -53.7540   -57.5190    19.7330 oh         1 A1L      -0.523100
     13 O3         -47.8270   -55.9040    24.5300 oh         1 A1L      -0.652000
     14 O4         -52.1910   -53.7830    25.3300 o          1 A1L      -0.481000
     15 H1         -49.6120   -57.6290    21.3690 ha         1 A1L       0.117000
     16 H2         -48.6120   -57.5230    23.4940 h1         1 A1L       0.035200
     17 H3         -48.1480   -56.1550    22.4940 h1         1 A1L       0.035200
     18 H4         -51.3090   -58.2900    19.7460 ha         1 A1L       0.136000
     19 H5         -54.2040   -55.8350    21.7670 ha         1 A1L       0.140000
     20 H6         -49.7290   -54.6920    25.2480 ha         1 A1L       0.232000
     21 H7         -54.6230   -57.1300    19.8910 ho         1 A1L       0.475000
     22 H8         -46.9390   -56.2680    24.4820 ho         1 A1L       0.454000
@<TRIPOS>BOND
     1     1     3 ar  
     2     1     7 ar  
     3     1    15 1   
     4     2    10 1   
     5     2    13 1   
     6     2    16 1   
     7     2    17 1   
     8     3     4 ar  
     9     3    18 1   
    10     4     5 ar  
    11     4    12 1   
    12     5     6 ar  
    13     5    19 1   
    14     6     7 ar  
    15     6    11 1   
    16     7    10 1   
    17     8     9 1   
    18     8    11 1   
    19     8    14 2   
    20     9    10 2   
    21     9    20 1   
    22    12    21 1   
    23    13    22 1   
@<TRIPOS>SUBSTRUCTURE
     1 A1L         1 TEMP              0 ****  ****    0 ROOT
