@<TRIPOS>MOLECULE
A1L
   61    64     1     0     0
SMALL
abcg2


@<TRIPOS>ATOM
      1 C32         12.7790    11.8030    21.6520 ca         1 A1L      -0.115000
      2 C31         12.1490    11.3470    20.5020 ca         1 A1L      -0.115000
      3 C33         12.0890    11.8000    22.8580 ca         1 A1L      -0.115000
      4 C26          7.2780     8.4840    21.4540 ca         1 A1L      -0.119000
      5 C30         10.8390    10.8930    20.5580 ca         1 A1L      -0.100000
      6 C34         10.7790    11.3470    22.9120 ca         1 A1L      -0.100000
      7 C27          8.5390     9.0460    21.4040 ca         1 A1L      -0.101000
      8 C25          6.2050     9.2330    21.9160 ca         1 A1L      -0.071000
      9 C12          0.9100    10.7800    24.2190 ca         1 A1L       0.176900
     10 C29         10.1350    10.8910    21.7610 cp         1 A1L      -0.025000
     11 C28          8.7500    10.3630    21.8130 cp         1 A1L      -0.050000
     12 C3           6.3920    10.5490    22.3170 ca         1 A1L      -0.086300
     13 C11          0.7930    12.0850    24.6510 ca         1 A1L      -0.221300
     14 C2           7.6680    11.1340    22.2590 ca         1 A1L      -0.058300
     15 C8           1.9320    12.8680    24.4190 ca         1 A1L       0.361300
     16 C6           3.0060    11.1160    23.5020 ca         1 A1L       0.366300
     17 C22         -1.5940     9.4380    26.9310 c          1 A1L       0.723000
     18 C18         -2.4390    12.7010    27.9220 c6         1 A1L      -0.065400
     19 C17         -3.4460    12.0950    26.9580 c6         1 A1L      -0.102400
     20 C19         -1.2670    11.7350    28.1390 c6         1 A1L      -0.094400
     21 C16         -2.7860    11.8810    25.5890 c6         1 A1L       0.216800
     22 C20         -0.9960    10.8780    26.8840 c6         1 A1L       0.048500
     23 C1           7.8340    12.5740    22.6620 c3         1 A1L      -0.054800
     24 C10          3.0420    14.9510    24.5620 c3         1 A1L       0.163900
     25 C4           5.2490    11.3960    22.8090 c3         1 A1L       0.223900
     26 N13          2.0030    10.2750    23.6420 nb         1 A1L      -0.207000
     27 N7           3.0250    12.3900    23.8540 nb         1 A1L      -0.367000
     28 N15         -1.3640    11.5790    25.6670 n3         1 A1L      -0.739600
     29 O24         -1.8010     8.8760    25.8380 o          1 A1L      -0.723500
     30 O23         -1.7520     8.9340    28.0610 o          1 A1L      -0.723500
     31 O5           4.0960    10.5880    22.9480 os         1 A1L      -0.448300
     32 H60         13.8010    12.1560    21.6110 ha         1 A1L       0.107000
     33 H59         12.6780    11.3470    19.5580 ha         1 A1L       0.108500
     34 H61         12.5740    12.1470    23.7620 ha         1 A1L       0.108500
     35 H56          7.1260     7.4590    21.1410 ha         1 A1L       0.114000
     36 H58         10.3520    10.5440    19.6540 ha         1 A1L       0.117000
     37 H62         10.2520    11.3380    23.8580 ha         1 A1L       0.117000
     38 H57          9.3800     8.4560    21.0600 ha         1 A1L       0.109000
     39 H55          5.2250     8.7800    21.9590 ha         1 A1L       0.144000
     40 H43          0.0760    10.1020    24.3660 h4         1 A1L       0.100100
     41 H51         -2.0810    13.6520    27.5130 hc         1 A1L       0.012700
     42 H50         -2.9100    12.9450    28.8770 hc         1 A1L       0.012700
     43 H48         -3.8110    11.1480    27.3650 hc         1 A1L       0.040200
     44 H49         -4.3240    12.7350    26.8450 hc         1 A1L       0.040200
     45 H53         -0.3750    12.3020    28.4160 hc         1 A1L       0.038700
     46 H52         -1.4760    11.0710    28.9770 hc         1 A1L       0.038700
     47 H46         -3.3070    11.0790    25.0540 h1         1 A1L       0.031200
     48 H47         -2.9120    12.7830    24.9860 h1         1 A1L       0.031200
     49 H21          0.0860    10.6990    26.8370 h1         1 A1L       0.035700
     50 H36          7.0500    13.2010    22.2350 hc         1 A1L       0.044033
     51 H37          7.7800    12.6960    23.7470 hc         1 A1L       0.044033
     52 H35          8.7850    12.9860    22.3370 hc         1 A1L       0.044033
     53 H42          2.7790    15.9400    24.9270 h1         1 A1L       0.039367
     54 H40          3.9060    14.5790    25.1120 h1         1 A1L       0.039367
     55 H41          3.2950    15.0110    23.5030 h1         1 A1L       0.039367
     56 H44         -0.1540    13.2720    26.1540 h1         1 A1L       0.026200
     57 H45         -0.9460    13.3060    24.5990 h1         1 A1L       0.026200
     58 H38          5.5080    11.8590    23.7660 h1         1 A1L       0.051700
     59 H39          5.0530    12.2150    22.1070 h1         1 A1L       0.051700
     60 C14         -0.4500    12.6340    25.3050 c3         1 A1L       0.266100
     61 O9           1.8920    14.1400    24.7810 os         1 A1L      -0.455300
@<TRIPOS>BOND
     1     1     2 ar  
     2     1     3 ar  
     3     1    32 1   
     4     2     5 ar  
     5     2    33 1   
     6     3     6 ar  
     7     3    34 1   
     8     4     7 ar  
     9     4     8 ar  
    10     4    35 1   
    11     5    10 ar  
    12     5    36 1   
    13     6    10 ar  
    14     6    37 1   
    15     7    11 ar  
    16     7    38 1   
    17     8    12 ar  
    18     8    39 1   
    19     9    13 ar  
    20     9    26 ar  
    21     9    40 1   
    22    10    11 1   
    23    11    14 ar  
    24    12    14 ar  
    25    12    25 1   
    26    13    15 ar  
    27    13    60 1   
    28    14    23 1   
    29    15    27 ar  
    30    15    61 1   
    31    16    26 ar  
    32    16    27 ar  
    33    16    31 1   
    34    17    22 1   
    35    17    29 1   
    36    17    30 1   
    37    18    19 1   
    38    18    20 1   
    39    18    41 1   
    40    18    42 1   
    41    19    21 1   
    42    19    43 1   
    43    19    44 1   
    44    20    22 1   
    45    20    45 1   
    46    20    46 1   
    47    21    28 1   
    48    21    47 1   
    49    21    48 1   
    50    22    28 1   
    51    22    49 1   
    52    23    50 1   
    53    23    51 1   
    54    23    52 1   
    55    24    53 1   
    56    24    54 1   
    57    24    55 1   
    58    24    61 1   
    59    25    31 1   
    60    25    58 1   
    61    25    59 1   
    62    28    60 1   
    63    56    60 1   
    64    57    60 1   
@<TRIPOS>SUBSTRUCTURE
     1 A1L         1 TEMP              0 ****  ****    0 ROOT
