@<TRIPOS>MOLECULE
A1L
   63    67     1     0     0
SMALL
abcg2


@<TRIPOS>ATOM
      1 C1          -8.0530   -19.9580    10.3410 c3         1 A1L      -0.086100
      2 C2          -8.5250   -18.5290    10.0850 c3         1 A1L      -0.018400
      3 C3          -7.3340   -17.6080     9.8000 c3         1 A1L       0.166800
      4 N1          -7.7820   -16.3010     9.3680 n7         1 A1L      -0.864400
      5 C4          -6.7790   -15.2590     9.4620 c3         1 A1L       0.245800
      6 C5          -7.2060   -14.0710     8.5980 c6         1 A1L       0.168300
      7 C6          -6.1790   -12.9540     8.5470 c6         1 A1L       0.162800
      8 N2          -6.6900   -11.9290     7.6680 nu         1 A1L      -0.933200
      9 C7          -7.9950   -11.5450     7.8800 ca         1 A1L       0.179000
     10 C8          -8.5330   -10.3640     7.3960 ca         1 A1L      -0.115000
     11 C9          -9.8710   -10.0410     7.6340 ca         1 A1L      -0.030000
     12 C10        -10.6140   -10.9470     8.3810 ca         1 A1L       0.332900
     13 N3         -10.1170   -12.0940     8.8350 nb         1 A1L      -0.668000
     14 C11         -8.8670   -12.3920     8.5940 ca         1 A1L       0.532300
     15 O1          -8.4470   -13.5770     9.0840 os         1 A1L      -0.431300
     16 C12        -10.4540    -8.8040     7.1250 cc         1 A1L      -0.150000
     17 C13         -9.7930    -7.6320     6.7070 cc         1 A1L       0.251900
     18 N4         -10.6450    -6.7090     6.3040 nd         1 A1L      -0.524800
     19 N5         -11.8480    -7.2530     6.4490 na         1 A1L       0.134800
     20 C14        -11.7900    -8.5030     6.9350 cd         1 A1L      -0.156000
     21 C15        -13.0290    -6.5090     6.0840 c3         1 A1L       0.072900
     22 C16         -6.5420   -14.8720    10.9060 ca         1 A1L      -0.097300
     23 C17         -5.2460   -14.6490    11.3650 ca         1 A1L      -0.086000
     24 C18         -5.0080   -14.2690    12.6790 ca         1 A1L      -0.119500
     25 C19         -6.0710   -14.1120    13.5580 ca         1 A1L      -0.104000
     26 C20         -7.3670   -14.3450    13.1130 ca         1 A1L      -0.119500
     27 C21         -7.6010   -14.7240    11.7990 ca         1 A1L      -0.086000
     28 C22         -9.3320   -17.9630    11.2260 ca         1 A1L      -0.033300
     29 C23         -8.8390   -17.9970    12.5300 ca         1 A1L      -0.104500
     30 C24         -9.5300   -17.4100    13.5720 ca         1 A1L      -0.070500
     31 C25        -10.7440   -16.7710    13.3200 ca         1 A1L      -0.030000
     32 C26        -11.2600   -16.7390    12.0250 ca         1 A1L      -0.070500
     33 C27        -10.5530   -17.3340    10.9950 ca         1 A1L      -0.104500
     34 C28        -11.4500   -16.1440    14.3890 cg         1 A1L       0.329000
     35 N6         -12.0150   -15.6350    15.2550 n1         1 A1L      -0.463000
     36 H1          -8.8920   -20.6200    10.5560 hc         1 A1L       0.038033
     37 H3          -7.5360   -20.3480     9.4630 hc         1 A1L       0.038033
     38 H2          -7.3590   -20.0150    11.1810 hc         1 A1L       0.038033
     39 H4          -9.1610   -18.5390     9.1930 hc         1 A1L       0.054700
     40 H5          -6.7480   -17.5010    10.7180 h1         1 A1L       0.035200
     41 H6          -6.6710   -18.0910     9.0670 h1         1 A1L       0.035200
     42 H29         -8.1230   -16.3690     8.4170 hn         1 A1L       0.419000
     43 H8          -5.8110   -15.5760     9.0370 h1         1 A1L       0.026700
     44 H9          -7.3500   -14.4430     7.5740 h1         1 A1L       0.053700
     45 H10         -5.9750   -12.5800     9.5580 h1         1 A1L       0.056200
     46 H11         -5.2430   -13.3420     8.1430 h1         1 A1L       0.056200
     47 H12         -6.0480   -11.1810     7.4540 hn         1 A1L       0.470000
     48 H13         -7.8990    -9.6960     6.8230 ha         1 A1L       0.118000
     49 H14        -11.6500   -10.7430     8.6310 h4         1 A1L       0.020100
     50 H15         -8.7320    -7.4310     6.6980 h4         1 A1L       0.036100
     51 H16        -12.6830    -9.0860     7.0960 h4         1 A1L       0.155000
     52 H17        -13.0250    -6.2870     5.0180 h1         1 A1L       0.057367
     53 H19        -13.9070    -7.1020     6.3180 h1         1 A1L       0.057367
     54 H18        -13.0720    -5.5760     6.6420 h1         1 A1L       0.057367
     55 H20         -4.4100   -14.7800    10.6860 ha         1 A1L       0.123000
     56 H21         -3.9940   -14.1030    13.0170 ha         1 A1L       0.113500
     57 H22         -5.8910   -13.8220    14.5850 ha         1 A1L       0.112000
     58 H23         -8.2010   -14.2390    13.7950 ha         1 A1L       0.113500
     59 H24         -8.6120   -14.9230    11.4720 ha         1 A1L       0.123000
     60 H25         -7.8890   -18.4710    12.7410 ha         1 A1L       0.117500
     61 H26         -9.1290   -17.4360    14.5760 ha         1 A1L       0.124000
     62 H27        -12.2020   -16.2450    11.8260 ha         1 A1L       0.124000
     63 H28        -10.9530   -17.2980     9.9890 ha         1 A1L       0.117500
@<TRIPOS>BOND
     1     1     2 1   
     2     1    36 1   
     3     1    37 1   
     4     1    38 1   
     5     2     3 1   
     6     2    28 1   
     7     2    39 1   
     8     3     4 1   
     9     3    40 1   
    10     3    41 1   
    11     4     5 1   
    12     4    42 1   
    13     5     6 1   
    14     5    22 1   
    15     5    43 1   
    16     6     7 1   
    17     6    15 1   
    18     6    44 1   
    19     7     8 1   
    20     7    45 1   
    21     7    46 1   
    22     8     9 1   
    23     8    47 1   
    24     9    10 ar  
    25     9    14 ar  
    26    10    11 ar  
    27    10    48 1   
    28    11    12 ar  
    29    11    16 1   
    30    12    13 ar  
    31    12    49 1   
    32    13    14 ar  
    33    14    15 1   
    34    16    17 1   
    35    16    20 2   
    36    17    18 2   
    37    17    50 1   
    38    18    19 1   
    39    19    20 1   
    40    19    21 1   
    41    20    51 1   
    42    21    52 1   
    43    21    53 1   
    44    21    54 1   
    45    22    23 ar  
    46    22    27 ar  
    47    23    24 ar  
    48    23    55 1   
    49    24    25 ar  
    50    24    56 1   
    51    25    26 ar  
    52    25    57 1   
    53    26    27 ar  
    54    26    58 1   
    55    27    59 1   
    56    28    29 ar  
    57    28    33 ar  
    58    29    30 ar  
    59    29    60 1   
    60    30    31 ar  
    61    30    61 1   
    62    31    32 ar  
    63    31    34 1   
    64    32    33 ar  
    65    32    62 1   
    66    33    63 1   
    67    34    35 3   
@<TRIPOS>SUBSTRUCTURE
     1 A1L         1 TEMP              0 ****  ****    0 ROOT
