@<TRIPOS>MOLECULE
A1L
   33    34     1     0     0
SMALL
abcg2


@<TRIPOS>ATOM
      1 C2           2.1950    -0.2690    -1.0490 c          1 A1L       0.619000
      2 C4           4.1400    -1.6860    -0.4850 c          1 A1L       0.566200
      3 C5           4.1020    -1.1160     0.8490 cc         1 A1L      -0.106100
      4 C6           3.1720    -0.1960     1.1420 cd         1 A1L      -0.016400
      5 C1           1.2180     1.1820     0.6590 c5         1 A1L       0.327700
      6 C7           1.0260     2.4520    -0.1950 c5         1 A1L       0.091300
      7 C3          -0.4160     2.3040    -0.7200 c5         1 A1L       0.087300
      8 C8          -1.0590     1.3690     0.3020 c5         1 A1L       0.156300
      9 C9          -2.1920     0.5420    -0.2600 c3         1 A1L       0.260600
     10 N1           2.2430     0.2440     0.2200 n          1 A1L      -0.293000
     11 N3           3.1680    -1.2040    -1.3260 ns         1 A1L      -0.457500
     12 O1           5.0080    -1.5340     1.7520 oh         1 A1L      -0.534100
     13 O2           1.3810     0.0620    -1.8850 o          1 A1L      -0.526000
     14 O6           1.1310     3.5660     0.6540 oh         1 A1L      -0.739000
     15 O3          -1.1060     3.5290    -0.7540 oh         1 A1L      -0.707000
     16 O4           4.9560    -2.5190    -0.8350 o          1 A1L      -0.585000
     17 O7          -0.0070     0.5150     0.7250 os         1 A1L      -0.399000
     18 O5          -2.7400    -0.2600     0.7330 os         1 A1L      -0.568400
     19 OP1         -3.7900    -1.9300    -0.9150 o          1 A1L      -0.921500
     20 OP2         -4.3370    -1.9750     1.6040 o          1 A1L      -0.921500
     21 P           -4.1650    -1.1460     0.3390 p5         1 A1L       1.269900
     22 O3P         -5.2270    -0.0720     0.1170 o          1 A1L      -0.921500
     23 H1           3.1120     0.2520     2.1240 h4         1 A1L       0.221000
     24 H2           1.5410     1.5070     1.6530 h2         1 A1L       0.060700
     25 H3           1.7570     2.5200    -1.0070 h1         1 A1L       0.046700
     26 H4          -0.4010     1.8280    -1.7030 h1         1 A1L       0.081700
     27 H5          -1.4230     1.9660     1.1520 h1         1 A1L       0.061700
     28 H6          -2.9250     1.2460    -0.6840 h1         1 A1L       0.008700
     29 H7          -1.8010    -0.0430    -1.1060 h1         1 A1L       0.008700
     30 H8           3.1500    -1.5810    -2.2660 hn         1 A1L       0.337500
     31 H9           5.5700    -2.2060     1.3410 ho         1 A1L       0.476000
     32 H10          0.4180     4.1710     0.4080 ho         1 A1L       0.523000
     33 H11         -1.0070     3.9190    -1.6290 ho         1 A1L       0.491000
@<TRIPOS>BOND
     1     1    10 1   
     2     1    11 1   
     3     1    13 2   
     4     2     3 1   
     5     2    11 1   
     6     2    16 2   
     7     3     4 2   
     8     3    12 1   
     9     4    10 1   
    10     4    23 1   
    11     5     6 1   
    12     5    10 1   
    13     5    17 1   
    14     5    24 1   
    15     6     7 1   
    16     6    14 1   
    17     6    25 1   
    18     7     8 1   
    19     7    15 1   
    20     7    26 1   
    21     8     9 1   
    22     8    17 1   
    23     8    27 1   
    24     9    18 1   
    25     9    28 1   
    26     9    29 1   
    27    11    30 1   
    28    12    31 1   
    29    14    32 1   
    30    15    33 1   
    31    18    21 1   
    32    19    21 1   
    33    20    21 1   
    34    21    22 1   
@<TRIPOS>SUBSTRUCTURE
     1 A1L         1 TEMP              0 ****  ****    0 ROOT
