@<TRIPOS>MOLECULE
A1L
   54    57     1     0     0
SMALL
abcg2


@<TRIPOS>ATOM
      1 N1          10.5550   -13.2340    -2.6910 n          1 A1L      -0.422800
      2 C4          10.2430   -15.0860    -1.1460 c6         1 A1L      -0.052100
      3 C5           8.8630   -14.5820    -0.8280 ca         1 A1L      -0.039300
      4 C6           8.0040   -15.2540     0.0550 cp         1 A1L      -0.048000
      5 C7           6.7270   -14.7600     0.2960 ca         1 A1L      -0.091000
      6 C8           6.2970   -13.5900    -0.3160 ca         1 A1L      -0.109000
      7 C10          8.4150   -16.5040     0.7400 cp         1 A1L      -0.006000
      8 C13          9.1280   -18.8590     2.0600 ca         1 A1L      -0.196300
      9 C15          7.8080   -17.7130     0.4160 ca         1 A1L      -0.108000
     10 C17         11.3570   -12.8160    -3.7200 c          1 A1L       0.656100
     11 C20         10.6150   -10.7770    -6.7190 c3         1 A1L      -0.102100
     12 C21         12.2780    -9.5170    -4.1300 ca         1 A1L      -0.099000
     13 C22         13.1740    -8.5290    -3.7440 ca         1 A1L      -0.108000
     14 C24         14.6490    -9.1690    -5.5240 ca         1 A1L      -0.108000
     15 C1           8.4160   -13.4210    -1.4540 ca         1 A1L      -0.093300
     16 C11          9.3820   -16.4900     1.7450 ca         1 A1L      -0.108000
     17 C12          9.7390   -17.6540     2.4000 ca         1 A1L      -0.060500
     18 C14          8.1600   -18.8860     1.0680 ca         1 A1L      -0.060500
     19 C16          9.5470   -20.1000     2.7810 c3         1 A1L       0.357300
     20 C18         11.5690   -11.3860    -5.6940 c3         1 A1L       0.170000
     21 C19         12.5580   -10.3430    -5.2140 ca         1 A1L      -0.096300
     22 C2           9.2460   -12.6620    -2.4600 c6         1 A1L       0.148300
     23 C23         14.3610    -8.3490    -4.4400 ca         1 A1L      -0.108000
     24 C25         13.7510   -10.1570    -5.9050 ca         1 A1L      -0.099000
     25 C3          11.1470   -13.9500    -1.5800 c6         1 A1L       0.108000
     26 C9           7.1420   -12.9250    -1.1840 ca         1 A1L      -0.103000
     27 F1          10.8390   -20.3850     2.5620 f          1 A1L      -0.114000
     28 F2           9.4090   -19.9710     4.1090 f          1 A1L      -0.114000
     29 F3           8.8420   -21.1770     2.4210 f          1 A1L      -0.114000
     30 N2          10.7900   -11.9720    -4.6260 ns         1 A1L      -0.517900
     31 O1          12.5140   -13.2030    -3.8480 o          1 A1L      -0.630100
     32 H41         10.1900   -15.8380    -1.9400 hc         1 A1L       0.066700
     33 H42         10.6910   -15.5810    -0.2850 hc         1 A1L       0.066700
     34 H71          6.0720   -15.2860     0.9790 ha         1 A1L       0.120000
     35 H81          5.3070   -13.2030    -0.1140 ha         1 A1L       0.119000
     36 H151         7.0530   -17.7430    -0.3600 ha         1 A1L       0.125000
     37 H202        11.1750   -10.3570    -7.5520 hc         1 A1L       0.043700
     38 H203         9.9330   -11.5310    -7.1120 hc         1 A1L       0.043700
     39 H201        10.0240    -9.9730    -6.2740 hc         1 A1L       0.043700
     40 H211        11.3580    -9.6460    -3.5720 ha         1 A1L       0.107000
     41 H221        12.9410    -7.8970    -2.8960 ha         1 A1L       0.111500
     42 H241        15.5750    -9.0430    -6.0710 ha         1 A1L       0.111500
     43 H111         9.8550   -15.5570     2.0230 ha         1 A1L       0.125000
     44 H121        10.4910   -17.6120     3.1780 ha         1 A1L       0.131000
     45 H141         7.6710   -19.8090     0.7880 ha         1 A1L       0.131000
     46 H181        12.1310   -12.1840    -6.1850 h1         1 A1L       0.081700
     47 H22          8.6780   -12.6620    -3.3940 h1         1 A1L       0.042700
     48 H23          9.3210   -11.6160    -2.1330 h1         1 A1L       0.042700
     49 H231        15.0600    -7.5800    -4.1380 ha         1 A1L       0.112000
     50 H251        13.9850   -10.7970    -6.7490 ha         1 A1L       0.107000
     51 H31         12.1140   -14.3380    -1.8850 h1         1 A1L       0.060700
     52 H32         11.3170   -13.2710    -0.7360 h1         1 A1L       0.060700
     53 H91          6.8120   -12.0140    -1.6700 ha         1 A1L       0.112000
     54 H21          9.9090   -11.5290    -4.4270 hn         1 A1L       0.305500
@<TRIPOS>BOND
     1     1    10 1   
     2     1    22 1   
     3     1    25 1   
     4     2     3 1   
     5     2    25 1   
     6     2    32 1   
     7     2    33 1   
     8     3     4 ar  
     9     3    15 ar  
    10     4     5 ar  
    11     4     7 1   
    12     5     6 ar  
    13     5    34 1   
    14     6    26 ar  
    15     6    35 1   
    16     7     9 ar  
    17     7    16 ar  
    18     8    17 ar  
    19     8    18 ar  
    20     8    19 1   
    21     9    18 ar  
    22     9    36 1   
    23    10    30 1   
    24    10    31 2   
    25    11    20 1   
    26    11    37 1   
    27    11    38 1   
    28    11    39 1   
    29    12    13 ar  
    30    12    21 ar  
    31    12    40 1   
    32    13    23 ar  
    33    13    41 1   
    34    14    23 ar  
    35    14    24 ar  
    36    14    42 1   
    37    15    22 1   
    38    15    26 ar  
    39    16    17 ar  
    40    16    43 1   
    41    17    44 1   
    42    18    45 1   
    43    19    27 1   
    44    19    28 1   
    45    19    29 1   
    46    20    21 1   
    47    20    30 1   
    48    20    46 1   
    49    21    24 ar  
    50    22    47 1   
    51    22    48 1   
    52    23    49 1   
    53    24    50 1   
    54    25    51 1   
    55    25    52 1   
    56    26    53 1   
    57    30    54 1   
@<TRIPOS>SUBSTRUCTURE
     1 A1L         1 TEMP              0 ****  ****    0 ROOT
