@<TRIPOS>MOLECULE
A1L
   54    55     1     0     0
SMALL
abcg2


@<TRIPOS>ATOM
      1 N1           9.3540   -16.1430    16.2340 n          1 A1L      -0.278300
      2 C4          13.4090   -18.3130    17.8940 ca         1 A1L      -0.195000
      3 C5          13.4790   -16.9730    17.5340 ca         1 A1L      -0.130000
      4 C6          13.0580   -16.5660    16.2770 ca         1 A1L      -0.119500
      5 C7          12.1250   -16.9980    13.9950 c3         1 A1L      -0.319400
      6 C8          10.8700   -17.6770    13.4470 c3         1 A1L      -0.018400
      7 C10          9.2640   -16.3990    14.9220 c          1 A1L       0.609100
      8 C13          8.9910   -18.8530    18.8930 c3         1 A1L      -0.071400
      9 C15         11.1150   -20.6220    20.4390 ca         1 A1L      -0.075300
     10 C17         12.4950   -20.4970    20.5900 ca         1 A1L      -0.104000
     11 C20         11.4950   -22.6310    19.1400 ca         1 A1L      -0.104500
     12 C21         10.6290   -21.7080    19.7120 ca         1 A1L      -0.104000
     13 P1          13.5740   -17.1500    12.7650 p5         1 A1L       1.267500
     14 O4          13.8130   -18.6590    12.6300 o          1 A1L      -0.909833
     15 O3          13.0390   -16.4860    11.4890 o          1 A1L      -0.909833
     16 C1          12.5530   -17.4730    15.3420 ca         1 A1L       0.056700
     17 C3          12.9180   -19.2330    16.9770 ca         1 A1L      -0.130000
     18 C2          12.5090   -18.8190    15.7160 ca         1 A1L      -0.119500
     19 C9           9.6760   -17.7510    14.4090 c3         1 A1L      -0.145400
     20 O2           8.8440   -15.5160    14.1670 o          1 A1L      -0.651100
     21 O1           8.8800   -14.9160    16.6450 oh         1 A1L      -0.491100
     22 C11          9.7210   -16.9980    17.3370 c3         1 A1L       0.122000
     23 C12          8.5410   -17.7000    18.0000 c3         1 A1L      -0.097400
     24 C14          9.8650   -18.4390    20.0710 c3         1 A1L      -0.073400
     25 C16         10.1880   -19.5940    21.0280 c3         1 A1L      -0.025100
     26 C19         12.8680   -22.4890    19.2930 ca         1 A1L      -0.107000
     27 C18         13.3660   -21.4190    20.0250 ca         1 A1L      -0.104500
     28 H3          13.1010   -15.5150    16.0160 ha         1 A1L       0.115000
     29 H4          11.9210   -15.9230    14.0770 hc         1 A1L       0.047700
     30 H5          10.5690   -17.1500    12.5410 hc         1 A1L       0.061200
     31 H6          11.0990   -18.6980    13.1340 hc         1 A1L       0.061200
     32 H7           8.1030   -19.3640    19.2770 hc         1 A1L       0.036200
     33 H8           9.5180   -19.5880    18.2760 hc         1 A1L       0.036200
     34 H9          12.8930   -19.6660    21.1600 ha         1 A1L       0.104000
     35 H10         11.0950   -23.4660    18.5780 ha         1 A1L       0.107000
     36 H11          9.5590   -21.8360    19.5950 ha         1 A1L       0.104000
     37 H14         12.8540   -20.2800    17.2500 ha         1 A1L       0.071000
     38 H15         12.1290   -19.5550    15.0180 ha         1 A1L       0.115000
     39 H16          8.8120   -18.1500    13.8710 hc         1 A1L       0.033700
     40 H17          9.8800   -18.4560    15.2110 hc         1 A1L       0.033700
     41 H18          8.5910   -14.5100    15.8060 ho         1 A1L       0.470000
     42 H19         10.4370   -17.7290    16.9690 h1         1 A1L       0.081200
     43 H20         10.2720   -16.3830    18.0500 h1         1 A1L       0.081200
     44 H21          7.9480   -16.9840    18.5760 hc         1 A1L       0.035700
     45 H22          7.8860   -18.0970    17.2200 hc         1 A1L       0.035700
     46 H23         10.8030   -17.9970    19.7210 hc         1 A1L       0.048700
     47 H24          9.3510   -17.6570    20.6390 hc         1 A1L       0.048700
     48 H25         10.6410   -19.1810    21.9330 hc         1 A1L       0.030200
     49 H26          9.2530   -20.0710    21.3370 hc         1 A1L       0.030200
     50 H27         13.5440   -23.2090    18.8490 ha         1 A1L       0.109000
     51 H28         14.4340   -21.3010    20.1570 ha         1 A1L       0.107000
     52 O5          14.7260   -16.3900    13.4300 o          1 A1L      -0.909833
     53 H1          13.7270   -18.6360    18.8760 ha         1 A1L       0.063000
     54 H2          13.8570   -16.2410    18.2370 ha         1 A1L       0.071000
@<TRIPOS>BOND
     1     1     7 1   
     2     1    21 1   
     3     1    22 1   
     4     2     3 ar  
     5     2    17 ar  
     6     2    53 1   
     7     3     4 ar  
     8     3    54 1   
     9     4    16 ar  
    10     4    28 1   
    11     5     6 1   
    12     5    13 1   
    13     5    16 1   
    14     5    29 1   
    15     6    19 1   
    16     6    30 1   
    17     6    31 1   
    18     7    19 1   
    19     7    20 2   
    20     8    23 1   
    21     8    24 1   
    22     8    32 1   
    23     8    33 1   
    24     9    10 ar  
    25     9    12 ar  
    26     9    25 1   
    27    10    27 ar  
    28    10    34 1   
    29    11    12 ar  
    30    11    26 ar  
    31    11    35 1   
    32    12    36 1   
    33    13    14 1   
    34    13    15 1   
    35    13    52 1   
    36    16    18 ar  
    37    17    18 ar  
    38    17    37 1   
    39    18    38 1   
    40    19    39 1   
    41    19    40 1   
    42    21    41 1   
    43    22    23 1   
    44    22    42 1   
    45    22    43 1   
    46    23    44 1   
    47    23    45 1   
    48    24    25 1   
    49    24    46 1   
    50    24    47 1   
    51    25    48 1   
    52    25    49 1   
    53    26    27 ar  
    54    26    50 1   
    55    27    51 1   
@<TRIPOS>SUBSTRUCTURE
     1 A1L         1 TEMP              0 ****  ****    0 ROOT
