@<TRIPOS>MOLECULE
A1L
   50    53     1     0     0
SMALL
abcg2


@<TRIPOS>ATOM
      1 C1          -7.6720    -0.3070     1.1710 ca         1 A1L       0.309000
      2 C2          -9.8110    -0.0160     0.0690 ca         1 A1L      -0.063000
      3 C3          -7.8110    -0.0410    -1.2360 ca         1 A1L      -0.060000
      4 C7          -2.4450     1.3420     0.2740 ca         1 A1L      -0.076000
      5 C10         -1.5320    -0.7820    -1.2470 ca         1 A1L      -0.101000
      6 C11         -2.8900    -0.6060    -1.0480 ca         1 A1L      -0.076000
      7 C12         -0.6110     0.1000    -0.6830 ca         1 A1L      -0.086500
      8 C13          0.8180    -0.0880    -0.9050 cc         1 A1L       0.262500
      9 C14          1.8670     0.7700    -0.6860 cd         1 A1L      -0.186000
     10 C4          -9.1920     0.0660    -1.1730 ca         1 A1L      -0.156000
     11 C5          -7.0550    -0.2270    -0.0880 ca         1 A1L      -0.126000
     12 C6          -4.8200     0.7180    -0.0630 c          1 A1L       0.615700
     13 N4           2.9440     0.0770    -1.1020 na         1 A1L       0.130800
     14 N2           2.5970    -1.1330    -1.5300 nd         1 A1L      -0.175800
     15 N3           1.3280    -1.2330    -1.4240 nc         1 A1L      -0.343000
     16 C8          -1.0880     1.1620     0.0860 ca         1 A1L      -0.101000
     17 C9          -3.3650     0.4550    -0.2800 ca         1 A1L      -0.148600
     18 O           -5.2270     1.8350     0.2080 o          1 A1L      -0.572100
     19 N1          -5.6440    -0.3480    -0.1830 ns         1 A1L      -0.176000
     20 N           -6.9300    -0.4350     2.3190 nv         1 A1L      -1.066000
     21 C           -9.0690    -0.2010     1.2210 ca         1 A1L      -0.182000
     22 H1         -10.8890     0.0610     0.1430 ha         1 A1L       0.110000
     23 H2          -7.2990     0.0150    -2.1890 ha         1 A1L       0.116000
     24 H3          -2.7920     2.1770     0.8680 ha         1 A1L       0.125000
     25 H4          -1.1890    -1.6050    -1.8600 ha         1 A1L       0.126000
     26 H5          -3.5700    -1.2960    -1.5320 ha         1 A1L       0.125000
     27 H6           1.9290     1.7790    -0.3130 h4         1 A1L       0.181000
     28 H7          -9.7720     0.2100    -2.0740 ha         1 A1L       0.116000
     29 H9          -0.3970     1.8560     0.5480 ha         1 A1L       0.126000
     30 H10         -5.2560    -1.2690    -0.3190 hn         1 A1L       0.152000
     31 H11         -7.4210    -0.7940     3.1210 hn         1 A1L       0.452500
     32 H12         -6.0130    -0.8410     2.2180 hn         1 A1L       0.452500
     33 H13         -9.5680    -0.2650     2.1810 ha         1 A1L       0.112000
     34 C15          4.3210     0.4430    -1.0500 c3         1 A1L      -0.128400
     35 S1           4.9330     0.2080     0.6570 sy         1 A1L       1.022500
     36 O2           4.5680     1.3890     1.4290 o          1 A1L      -0.497500
     37 O1           4.4690    -1.1030     1.0910 o          1 A1L      -0.497500
     38 C19          6.6850     0.1700     0.4290 ca         1 A1L      -0.277500
     39 C20          7.4090     1.3500     0.5310 ca         1 A1L      -0.015000
     40 C21          8.7800     1.3100     0.3300 ca         1 A1L      -0.125500
     41 C22          9.4060     0.1060     0.0320 ca         1 A1L      -0.048000
     42 C23          8.6670    -1.0660    -0.0670 ca         1 A1L      -0.125500
     43 C24          7.2960    -1.0430     0.1320 ca         1 A1L      -0.015000
     44 H8           4.8860    -0.2100    -1.7140 h2         1 A1L       0.118200
     45 H14          4.4730     1.4840    -1.3310 h2         1 A1L       0.118200
     46 H15          6.9200     2.2860     0.7640 ha         1 A1L       0.140500
     47 H16          9.3590     2.2200     0.4080 ha         1 A1L       0.125500
     48 H17         10.4760     0.0810    -0.1230 ha         1 A1L       0.122000
     49 H18          9.1580    -2.0020    -0.2970 ha         1 A1L       0.125500
     50 H19          6.7200    -1.9560     0.0590 ha         1 A1L       0.140500
@<TRIPOS>BOND
     1     1    11 ar  
     2     1    20 1   
     3     1    21 ar  
     4     2    10 ar  
     5     2    21 ar  
     6     2    22 1   
     7     3    10 ar  
     8     3    11 ar  
     9     3    23 1   
    10     4    16 ar  
    11     4    17 ar  
    12     4    24 1   
    13     5     6 ar  
    14     5     7 ar  
    15     5    25 1   
    16     6    17 ar  
    17     6    26 1   
    18     7     8 1   
    19     7    16 ar  
    20     8     9 2   
    21     8    15 1   
    22     9    13 1   
    23     9    27 1   
    24    10    28 1   
    25    11    19 1   
    26    12    17 1   
    27    12    18 2   
    28    12    19 1   
    29    13    14 1   
    30    13    34 1   
    31    14    15 2   
    32    16    29 1   
    33    19    30 1   
    34    20    31 1   
    35    20    32 1   
    36    21    33 1   
    37    34    35 1   
    38    34    44 1   
    39    34    45 1   
    40    35    36 2   
    41    35    37 2   
    42    35    38 1   
    43    38    39 ar  
    44    38    43 ar  
    45    39    40 ar  
    46    39    46 1   
    47    40    41 ar  
    48    40    47 1   
    49    41    42 ar  
    50    41    48 1   
    51    42    43 ar  
    52    42    49 1   
    53    43    50 1   
@<TRIPOS>SUBSTRUCTURE
     1 A1L         1 TEMP              0 ****  ****    0 ROOT
