@<TRIPOS>MOLECULE
A1L
  129   128     1     0     0
SMALL
abcg2


@<TRIPOS>ATOM
      1 C48         -1.8910    -1.9470    -2.3960 c3         1 A1L       0.161300
      2 C47         -0.9970    -3.1450    -2.6700 c3         1 A1L       0.192600
      3 C41          1.8240    -5.6400     0.6550 c3         1 A1L       0.210600
      4 C40        -18.6310     7.1100    -2.8730 c3         1 A1L      -0.088100
      5 C39        -17.9960     5.8940    -2.2130 c3         1 A1L      -0.075400
      6 C38        -16.5150     6.0870    -1.9110 c3         1 A1L      -0.075400
      7 C37        -15.8710     4.8670    -1.2650 c3         1 A1L      -0.075400
      8 C36        -14.3840     5.0390    -0.9840 c3         1 A1L      -0.073400
      9 C35        -13.7520     3.8000    -0.3630 c3         1 A1L      -0.075400
     10 C34        -12.2550     3.9310    -0.1150 c3         1 A1L      -0.073400
     11 C33        -11.6450     2.6670     0.4760 c3         1 A1L      -0.075400
     12 C32        -10.1360     2.7380     0.6660 c3         1 A1L      -0.073400
     13 C31         -9.5540     1.4480     1.2300 c3         1 A1L      -0.074400
     14 C11          8.5490     0.4690     1.4090 c3         1 A1L      -0.074400
     15 C12          8.1010    -0.9820     1.5450 c3         1 A1L      -0.074400
     16 C13          6.6360    -1.1280     1.9360 c3         1 A1L      -0.076400
     17 C14          6.1570    -2.5750     1.9080 c3         1 A1L      -0.067400
     18 C15          4.6810    -2.6900     2.2530 c3         1 A1L      -0.138400
     19 C16          4.1300    -4.0830     2.1140 c          1 A1L       0.603100
     20 C19          2.0920    -5.3240     2.1170 c3         1 A1L       0.171300
     21 C20          0.8580    -5.2320     2.9880 c3         1 A1L       0.176600
     22 C22         -1.1960    -4.0510     2.9340 c          1 A1L       0.604100
     23 C24         -1.8310    -2.7840     2.4280 c3         1 A1L      -0.146400
     24 C25         -3.3180    -2.6690     2.7250 c3         1 A1L      -0.059400
     25 C26         -3.8850    -1.3480     2.2200 c3         1 A1L      -0.083400
     26 C27         -5.3970    -1.2460     2.3650 c3         1 A1L      -0.070400
     27 C28         -5.9530     0.0720     1.8420 c3         1 A1L      -0.076400
     28 C29         -7.4740     0.1370     1.8640 c3         1 A1L      -0.073400
     29 C30         -8.0340     1.4460     1.3220 c3         1 A1L      -0.074400
     30 C49         -2.7110    -1.6260    -3.6360 c3         1 A1L       0.118600
     31 O17          4.7840    -5.0720     1.9010 o          1 A1L      -0.509000
     32 O18          2.8060    -4.0930     2.2600 os         1 A1L      -0.420100
     33 O21          0.0970    -4.0850     2.6310 os         1 A1L      -0.398100
     34 O23         -1.7640    -4.9310     3.5300 o          1 A1L      -0.526000
     35 O42          1.1350    -4.5820     0.0400 os         1 A1L      -0.568400
     36 O44          2.0220    -4.3670    -2.3680 o          1 A1L      -0.827500
     37 O45          0.0310    -5.9500    -1.8500 o          1 A1L      -0.827500
     38 O46         -0.2170    -3.4070    -1.5240 os         1 A1L      -0.571400
     39 O50         -3.4410    -0.4450    -3.4100 oh         1 A1L      -0.651000
     40 O51         -2.6990    -2.1370    -1.2560 oh         1 A1L      -0.641000
     41 P43          0.7990    -4.6960    -1.5670 p5         1 A1L       1.393800
     42 H1          -1.2560    -1.0850    -2.1660 h1         1 A1L       0.088700
     43 H2          -1.6170    -4.0130    -2.9310 h1         1 A1L       0.020700
     44 H3          -0.3650    -2.9280    -3.5390 h1         1 A1L       0.020700
     45 H4           2.7790    -5.8390     0.1560 h1         1 A1L       0.032200
     46 H5           1.2490    -6.5740     0.6260 h1         1 A1L       0.032200
     47 H6         -18.1310     7.3550    -3.8120 hc         1 A1L       0.030367
     48 H7         -19.6860     6.9420    -3.0950 hc         1 A1L       0.030367
     49 H8         -18.5660     7.9890    -2.2280 hc         1 A1L       0.030367
     50 H9         -18.5270     5.6600    -1.2860 hc         1 A1L       0.036200
     51 H10        -18.1190     5.0210    -2.8610 hc         1 A1L       0.036200
     52 H11        -15.9850     6.3280    -2.8400 hc         1 A1L       0.037200
     53 H12        -16.3880     6.9570    -1.2570 hc         1 A1L       0.037200
     54 H13        -16.3920     4.6330    -0.3300 hc         1 A1L       0.036200
     55 H14        -16.0150     3.9980    -1.9160 hc         1 A1L       0.036200
     56 H15        -13.8650     5.2810    -1.9180 hc         1 A1L       0.037200
     57 H16        -14.2330     5.8990    -0.3220 hc         1 A1L       0.037200
     58 H17        -14.2580     3.5690     0.5810 hc         1 A1L       0.036200
     59 H18        -13.9310     2.9410    -1.0180 hc         1 A1L       0.036200
     60 H19        -11.7510     4.1700    -1.0580 hc         1 A1L       0.037200
     61 H20        -12.0650     4.7780     0.5540 hc         1 A1L       0.037200
     62 H21        -12.1230     2.4480     1.4380 hc         1 A1L       0.036200
     63 H22        -11.8810     1.8190    -0.1760 hc         1 A1L       0.036200
     64 H23         -9.6610     2.9600    -0.2970 hc         1 A1L       0.037200
     65 H24         -9.9810     1.2590     2.2210 hc         1 A1L       0.035700
     66 H25          7.8940     0.9770     0.6920 hc         1 A1L       0.036700
     67 H26          8.4150     0.9900     2.3630 hc         1 A1L       0.036700
     68 H28          8.2700    -1.4930     0.5910 hc         1 A1L       0.038200
     69 H29          8.7310    -1.4960     2.2790 hc         1 A1L       0.038200
     70 H30          6.4750    -0.7040     2.9320 hc         1 A1L       0.037200
     71 H31          6.0210    -0.5350     1.2500 hc         1 A1L       0.037200
     72 H32          6.3350    -2.9870     0.9110 hc         1 A1L       0.052200
     73 H33          6.7530    -3.1740     2.6020 hc         1 A1L       0.052200
     74 H34          4.4990    -2.3530     3.2790 hc         1 A1L       0.072200
     75 H35          4.0880    -2.0230     1.6190 hc         1 A1L       0.072200
     76 H36          2.6800    -6.1560     2.5170 h1         1 A1L       0.048700
     77 H37          0.2790    -6.1490     2.8650 h1         1 A1L       0.043700
     78 H38          1.1490    -5.1620     4.0400 h1         1 A1L       0.043700
     79 H39         -1.2880    -1.9360     2.8560 hc         1 A1L       0.090200
     80 H40         -1.6570    -2.7270     1.3480 hc         1 A1L       0.090200
     81 H41         -3.8530    -3.4980     2.2530 hc         1 A1L       0.042700
     82 H42         -3.4960    -2.7580     3.8000 hc         1 A1L       0.042700
     83 H43         -3.4080    -0.5190     2.7540 hc         1 A1L       0.048200
     84 H44         -3.6190    -1.2220     1.1660 hc         1 A1L       0.048200
     85 H45         -5.8650    -2.0750     1.8230 hc         1 A1L       0.033200
     86 H46         -5.6800    -1.3730     3.4160 hc         1 A1L       0.033200
     87 H47         -5.5400     0.9010     2.4270 hc         1 A1L       0.040200
     88 H48         -5.6040     0.2250     0.8150 hc         1 A1L       0.040200
     89 H49         -7.8750    -0.6950     1.2750 hc         1 A1L       0.034200
     90 H50         -7.8350    -0.0170     2.8870 hc         1 A1L       0.034200
     91 H51         -7.6140     1.6340     0.3270 hc         1 A1L       0.037700
     92 H52         -7.7000     2.2770     1.9530 hc         1 A1L       0.037700
     93 H53         -2.0290    -1.5260    -4.4910 h1         1 A1L       0.016200
     94 H54         -3.3720    -2.4770    -3.8580 h1         1 A1L       0.016200
     95 H56         -3.9930    -0.2830    -4.1790 ho         1 A1L       0.426000
     96 H57         -3.2790    -2.8910    -1.4090 ho         1 A1L       0.430000
     97 C10          9.9950     0.6030     0.9460 c3         1 A1L      -0.074400
     98 C9          10.4180     2.0390     0.6650 c3         1 A1L      -0.073400
     99 C8          11.8410     2.1430     0.1310 c3         1 A1L      -0.075400
    100 C07         12.2570     3.5630    -0.2290 c3         1 A1L      -0.073400
    101 C6          13.6650     3.6430    -0.8050 c3         1 A1L      -0.075400
    102 C5          14.0810     5.0530    -1.2020 c3         1 A1L      -0.074400
    103 C4          15.4810     5.1180    -1.7990 c3         1 A1L      -0.074400
    104 C3          15.8970     6.5230    -2.2130 c3         1 A1L      -0.075400
    105 C2          17.2950     6.5830    -2.8160 c3         1 A1L      -0.075400
    106 C1          17.7010     7.9900    -3.2320 c3         1 A1L      -0.088100
    107 H27         10.6620     0.1640     1.6960 hc         1 A1L       0.036200
    108 H58         10.1320     0.0080     0.0360 hc         1 A1L       0.036200
    109 H59          9.7280     2.4800    -0.0640 hc         1 A1L       0.036700
    110 H60         10.3220     2.6400     1.5750 hc         1 A1L       0.036700
    111 H61         12.5380     1.7350     0.8720 hc         1 A1L       0.036200
    112 H62         11.9370     1.5060    -0.7550 hc         1 A1L       0.036200
    113 H63         11.5470     3.9750    -0.9550 hc         1 A1L       0.036700
    114 H64         12.1880     4.2020     0.6580 hc         1 A1L       0.036700
    115 H65         14.3790     3.2450    -0.0740 hc         1 A1L       0.036700
    116 H66         13.7330     2.9870    -1.6800 hc         1 A1L       0.036700
    117 H67         13.3610     5.4520    -1.9250 hc         1 A1L       0.036700
    118 H68         14.0260     5.7090    -0.3270 hc         1 A1L       0.036700
    119 H69         16.2020     4.7240    -1.0740 hc         1 A1L       0.036700
    120 H70         15.5340     4.4540    -2.6690 hc         1 A1L       0.036700
    121 H71         15.1750     6.9180    -2.9360 hc         1 A1L       0.036700
    122 H72         15.8480     7.1880    -1.3430 hc         1 A1L       0.036700
    123 H73         18.0170     6.1910    -2.0930 hc         1 A1L       0.036200
    124 H74         17.3430     5.9160    -3.6830 hc         1 A1L       0.036200
    125 H75         17.0230     8.3880    -3.9890 hc         1 A1L       0.030367
    126 H76         17.6780     8.6730    -2.3810 hc         1 A1L       0.030367
    127 H77         18.7090     8.0120    -3.6470 hc         1 A1L       0.030367
    128 H78         -9.8840     3.5750     1.3270 hc         1 A1L       0.037200
    129 H79         -9.8710     0.6090     0.6000 hc         1 A1L       0.035700
@<TRIPOS>BOND
     1     1     2 1   
     2     1    30 1   
     3     1    40 1   
     4     1    42 1   
     5     2    38 1   
     6     2    43 1   
     7     2    44 1   
     8     3    20 1   
     9     3    35 1   
    10     3    45 1   
    11     3    46 1   
    12     4     5 1   
    13     4    47 1   
    14     4    48 1   
    15     4    49 1   
    16     5     6 1   
    17     5    50 1   
    18     5    51 1   
    19     6     7 1   
    20     6    52 1   
    21     6    53 1   
    22     7     8 1   
    23     7    54 1   
    24     7    55 1   
    25     8     9 1   
    26     8    56 1   
    27     8    57 1   
    28     9    10 1   
    29     9    58 1   
    30     9    59 1   
    31    10    11 1   
    32    10    60 1   
    33    10    61 1   
    34    11    12 1   
    35    11    62 1   
    36    11    63 1   
    37    12    13 1   
    38    12    64 1   
    39    12   128 1   
    40    13    29 1   
    41    13    65 1   
    42    13   129 1   
    43    14    15 1   
    44    14    66 1   
    45    14    67 1   
    46    14    97 1   
    47    15    16 1   
    48    15    68 1   
    49    15    69 1   
    50    16    17 1   
    51    16    70 1   
    52    16    71 1   
    53    17    18 1   
    54    17    72 1   
    55    17    73 1   
    56    18    19 1   
    57    18    74 1   
    58    18    75 1   
    59    19    31 2   
    60    19    32 1   
    61    20    21 1   
    62    20    32 1   
    63    20    76 1   
    64    21    33 1   
    65    21    77 1   
    66    21    78 1   
    67    22    23 1   
    68    22    33 1   
    69    22    34 2   
    70    23    24 1   
    71    23    79 1   
    72    23    80 1   
    73    24    25 1   
    74    24    81 1   
    75    24    82 1   
    76    25    26 1   
    77    25    83 1   
    78    25    84 1   
    79    26    27 1   
    80    26    85 1   
    81    26    86 1   
    82    27    28 1   
    83    27    87 1   
    84    27    88 1   
    85    28    29 1   
    86    28    89 1   
    87    28    90 1   
    88    29    91 1   
    89    29    92 1   
    90    30    39 1   
    91    30    93 1   
    92    30    94 1   
    93    35    41 1   
    94    36    41 1   
    95    37    41 1   
    96    38    41 1   
    97    39    95 1   
    98    40    96 1   
    99    97    98 1   
   100    97   107 1   
   101    97   108 1   
   102    98    99 1   
   103    98   109 1   
   104    98   110 1   
   105    99   100 1   
   106    99   111 1   
   107    99   112 1   
   108   100   101 1   
   109   100   113 1   
   110   100   114 1   
   111   101   102 1   
   112   101   115 1   
   113   101   116 1   
   114   102   103 1   
   115   102   117 1   
   116   102   118 1   
   117   103   104 1   
   118   103   119 1   
   119   103   120 1   
   120   104   105 1   
   121   104   121 1   
   122   104   122 1   
   123   105   106 1   
   124   105   123 1   
   125   105   124 1   
   126   106   125 1   
   127   106   126 1   
   128   106   127 1   
@<TRIPOS>SUBSTRUCTURE
     1 A1L         1 TEMP              0 ****  ****    0 ROOT
