@<TRIPOS>MOLECULE
A1L
   35    36     1     0     0
SMALL
abcg2


@<TRIPOS>ATOM
      1 C1           6.3710    16.3290    13.4500 c          1 A1L       0.587900
      2 C2           6.5320    17.1330    12.2130 ce         1 A1L      -0.288200
      3 C3           6.6710    16.6970    10.9550 cf         1 A1L      -0.095200
      4 O1           5.5360    16.6780    14.2670 o          1 A1L      -0.533100
      5 C4           7.2380    15.1570    13.7020 ca         1 A1L      -0.210600
      6 C5           8.4610    14.9720    13.0560 ca         1 A1L      -0.018500
      7 C6           9.2470    13.8670    13.3190 ca         1 A1L      -0.195000
      8 C7           8.8180    12.9090    14.2390 ca         1 A1L       0.167100
      9 C8           7.6030    13.0890    14.9020 ca         1 A1L      -0.195000
     10 C9           6.8340    14.2060    14.6390 ca         1 A1L      -0.018500
     11 O2           9.6060    11.8450    14.4450 oh         1 A1L      -0.528100
     12 C10          6.6690    15.3040    10.5020 ca         1 A1L      -0.083800
     13 C11          7.6160    14.8820     9.5630 ca         1 A1L       0.043100
     14 C12          7.7080    13.5510     9.1720 ca         1 A1L       0.094100
     15 C13          6.8110    12.6150     9.7020 ca         1 A1L       0.125100
     16 C14          5.8400    13.0370    10.6010 ca         1 A1L      -0.180000
     17 C15          5.7750    14.3620    11.0000 ca         1 A1L      -0.072000
     18 O3           8.5300    15.7590     9.0540 os         1 A1L      -0.368100
     19 C16          8.1180    16.4010     7.8480 c3         1 A1L       0.139900
     20 O4           6.9490    11.3430     9.2880 oh         1 A1L      -0.509100
     21 O5           8.6410    13.1110     8.3050 oh         1 A1L      -0.512100
     22 H1           6.4550    18.2030    12.3700 ha         1 A1L       0.196000
     23 H2           6.7720    17.4620    10.1930 ha         1 A1L       0.180000
     24 H3           8.8180    15.7050    12.3450 ha         1 A1L       0.128500
     25 H4          10.1970    13.7390    12.8160 ha         1 A1L       0.124000
     26 H5           7.2600    12.3530    15.6200 ha         1 A1L       0.124000
     27 H6           5.8910    14.3260    15.1570 ha         1 A1L       0.128500
     28 H7           9.2220    11.2530    15.1030 ho         1 A1L       0.468000
     29 H8           5.1310    12.3190    10.9970 ha         1 A1L       0.120000
     30 H9           5.0020    14.6630    11.6940 ha         1 A1L       0.125000
     31 H11          8.9370    17.0430     7.5330 h1         1 A1L       0.040367
     32 H12          7.9100    15.6780     7.0560 h1         1 A1L       0.040367
     33 H10          7.2270    17.0140     8.0020 h1         1 A1L       0.040367
     34 H13          6.2960    10.7790     9.7190 ho         1 A1L       0.462000
     35 H14          9.2910    13.8070     8.1460 ho         1 A1L       0.472000
@<TRIPOS>BOND
     1     1     2 1   
     2     1     4 2   
     3     1     5 1   
     4     2     3 2   
     5     2    22 1   
     6     3    12 1   
     7     3    23 1   
     8     5     6 ar  
     9     5    10 ar  
    10     6     7 ar  
    11     6    24 1   
    12     7     8 ar  
    13     7    25 1   
    14     8     9 ar  
    15     8    11 1   
    16     9    10 ar  
    17     9    26 1   
    18    10    27 1   
    19    11    28 1   
    20    12    13 ar  
    21    12    17 ar  
    22    13    14 ar  
    23    13    18 1   
    24    14    15 ar  
    25    14    21 1   
    26    15    16 ar  
    27    15    20 1   
    28    16    17 ar  
    29    16    29 1   
    30    17    30 1   
    31    18    19 1   
    32    19    31 1   
    33    19    32 1   
    34    19    33 1   
    35    20    34 1   
    36    21    35 1   
@<TRIPOS>SUBSTRUCTURE
     1 A1L         1 TEMP              0 ****  ****    0 ROOT
