@<TRIPOS>MOLECULE
A1L
   66    69     1     0     0
SMALL
abcg2


@<TRIPOS>ATOM
      1 C10         -1.5140     0.9620    -0.4710 c5         1 A1L      -0.131400
      2 C13         -3.8300     2.9300     0.0260 c          1 A1L       0.587100
      3 C17         -3.1720    -0.6570     0.2250 c5         1 A1L       0.184000
      4 C18         -4.6550    -0.9650     0.1960 c3         1 A1L      -0.067100
      5 C20         -0.9500    -1.2110     1.3040 c5         1 A1L      -0.099700
      6 C21         -0.4300    -2.1220     2.4250 c5         1 A1L      -0.051700
      7 C22         -0.0590    -3.5290     1.9740 c3         1 A1L      -0.089100
      8 C23         -1.6150    -2.1240     3.4360 c5         1 A1L      -0.078400
      9 C24         -2.8060    -1.4170     2.7530 c5         1 A1L      -0.068400
     10 C02          1.7730    -0.2670     0.2880 c          1 A1L       0.607300
     11 C04         -0.4240    -1.3310    -0.1130 c6         1 A1L       0.183300
     12 C05         -1.2930    -0.4470    -1.0590 c5         1 A1L       0.160000
     13 C06         -0.7910    -0.4450    -2.5140 c3         1 A1L      -0.033700
     14 C07         -0.4680    -1.8440    -3.0420 c3         1 A1L      -0.086600
     15 C08         -1.7840     0.2200    -3.4690 c3         1 A1L      -0.086600
     16 C11         -2.7930     0.8300     0.3660 c5         1 A1L       0.158300
     17 C14         -5.0390     3.5780    -0.6040 c3         1 A1L       0.099600
     18 C19         -2.4500    -1.5020     1.2760 c5         1 A1L      -0.097700
     19 C25          3.1640    -0.4550    -0.1650 ce         1 A1L      -0.278200
     20 C26          4.1410     0.3370     0.2900 cf         1 A1L      -0.075200
     21 C27          5.5550     0.2720    -0.0640 ca         1 A1L      -0.078800
     22 C28          6.0770    -0.6760    -0.9510 ca         1 A1L      -0.085000
     23 C29          7.4280    -0.6900    -1.2510 ca         1 A1L      -0.115500
     24 C30          8.2860     0.2410    -0.6720 ca         1 A1L      -0.094000
     25 C31          7.7820     1.1860     0.2100 ca         1 A1L      -0.115500
     26 C32          6.4280     1.2000     0.5100 ca         1 A1L      -0.085000
     27 O01          1.4180     0.5680     1.0870 o          1 A1L      -0.497000
     28 O03          0.9860    -1.1520    -0.3110 os         1 A1L      -0.453100
     29 O09         -2.5930    -1.0170    -1.0280 os         1 A1L      -0.440000
     30 O12         -3.8610     1.6180    -0.1700 os         1 A1L      -0.450100
     31 O15         -4.9690     4.9560    -0.3910 oh         1 A1L      -0.629000
     32 O16         -2.9620     3.5120     0.6180 o          1 A1L      -0.450000
     33 H1          -0.6730     1.3180     0.1180 hc         1 A1L       0.080700
     34 H2          -1.6610     1.6900    -1.2680 hc         1 A1L       0.080700
     35 H3          -5.1380    -0.6050     1.1040 hc         1 A1L       0.047700
     36 H4          -5.1560    -0.5110    -0.6580 hc         1 A1L       0.047700
     37 H5          -4.8080    -2.0430     0.1470 hc         1 A1L       0.047700
     38 H6          -0.8240    -0.1870     1.6620 hc         1 A1L       0.081700
     39 H7           0.4530    -1.6720     2.8850 hc         1 A1L       0.060700
     40 H8           0.7970    -3.5290     1.2970 hc         1 A1L       0.034700
     41 H9           0.2100    -4.1430     2.8350 hc         1 A1L       0.034700
     42 H10         -0.8880    -4.0290     1.4680 hc         1 A1L       0.034700
     43 H11         -1.8830    -3.1510     3.6920 hc         1 A1L       0.044700
     44 H12         -1.3440    -1.6310     4.3700 hc         1 A1L       0.044700
     45 H13         -3.7610    -1.8850     2.9920 hc         1 A1L       0.046200
     46 H14         -2.8680    -0.3730     3.0730 hc         1 A1L       0.046200
     47 H15         -0.5700    -2.3630    -0.4430 h1         1 A1L       0.085700
     48 H16          0.1300     0.1470    -2.5240 hc         1 A1L       0.054700
     49 H17         -0.1890    -1.7860    -4.0940 hc         1 A1L       0.036867
     50 H18          0.3610    -2.3170    -2.5190 hc         1 A1L       0.036867
     51 H19         -1.3350    -2.5040    -2.9720 hc         1 A1L       0.036867
     52 H20         -2.0750     1.2250    -3.1630 hc         1 A1L       0.036867
     53 H21         -1.3320     0.3080    -4.4580 hc         1 A1L       0.036867
     54 H22         -2.6920    -0.3720    -3.5760 hc         1 A1L       0.036867
     55 H23         -2.6440     1.1130     1.4100 h1         1 A1L       0.078700
     56 H24         -5.0480     3.3090    -1.6690 h1         1 A1L       0.047700
     57 H25         -5.9350     3.1200    -0.1640 h1         1 A1L       0.047700
     58 H26         -2.5960    -2.5430     0.9570 hc         1 A1L       0.066700
     59 H27          3.3510    -1.2500    -0.8750 ha         1 A1L       0.197000
     60 H28          3.8790     1.1180     0.9980 ha         1 A1L       0.194000
     61 H29          5.4300    -1.4110    -1.4130 ha         1 A1L       0.116000
     62 H30          7.8170    -1.4290    -1.9390 ha         1 A1L       0.116000
     63 H31          9.3410     0.2260    -0.9100 ha         1 A1L       0.115000
     64 H32          8.4420     1.9120     0.6660 ha         1 A1L       0.116000
     65 H33          6.0380     1.9380     1.2000 ha         1 A1L       0.116000
     66 H34         -5.7420     5.3570    -0.8000 ho         1 A1L       0.450000
@<TRIPOS>BOND
     1     1    12 1   
     2     1    16 1   
     3     1    33 1   
     4     1    34 1   
     5     2    17 1   
     6     2    30 1   
     7     2    32 2   
     8     3     4 1   
     9     3    16 1   
    10     3    18 1   
    11     3    29 1   
    12     4    35 1   
    13     4    36 1   
    14     4    37 1   
    15     5     6 1   
    16     5    11 1   
    17     5    18 1   
    18     5    38 1   
    19     6     7 1   
    20     6     8 1   
    21     6    39 1   
    22     7    40 1   
    23     7    41 1   
    24     7    42 1   
    25     8     9 1   
    26     8    43 1   
    27     8    44 1   
    28     9    18 1   
    29     9    45 1   
    30     9    46 1   
    31    10    19 1   
    32    10    27 2   
    33    10    28 1   
    34    11    12 1   
    35    11    28 1   
    36    11    47 1   
    37    12    13 1   
    38    12    29 1   
    39    13    14 1   
    40    13    15 1   
    41    13    48 1   
    42    14    49 1   
    43    14    50 1   
    44    14    51 1   
    45    15    52 1   
    46    15    53 1   
    47    15    54 1   
    48    16    30 1   
    49    16    55 1   
    50    17    31 1   
    51    17    56 1   
    52    17    57 1   
    53    18    58 1   
    54    19    20 2   
    55    19    59 1   
    56    20    21 1   
    57    20    60 1   
    58    21    22 ar  
    59    21    26 ar  
    60    22    23 ar  
    61    22    61 1   
    62    23    24 ar  
    63    23    62 1   
    64    24    25 ar  
    65    24    63 1   
    66    25    26 ar  
    67    25    64 1   
    68    26    65 1   
    69    31    66 1   
@<TRIPOS>SUBSTRUCTURE
     1 A1L         1 TEMP              0 ****  ****    0 ROOT
