@<TRIPOS>MOLECULE
A1L
   80    86     1     0     0
SMALL
abcg2


@<TRIPOS>ATOM
      1 C10         15.7210    -4.4940    19.1340 cc         1 A1L      -0.175800
      2 C11         13.9240    -3.4380    16.6540 ca         1 A1L      -0.027800
      3 C12         12.5750    -3.6230    16.3510 ca         1 A1L      -0.079000
      4 C13         11.7150    -2.5380    16.3310 ca         1 A1L      -0.117000
      5 C14         12.1910    -1.2620    16.6120 ca         1 A1L      -0.103000
      6 C15         13.5330    -1.0580    16.9120 ca         1 A1L      -0.091300
      7 C16         14.3900    -2.1550    16.9190 ca         1 A1L      -0.073000
      8 C21         16.6830    -4.8700    20.0570 cd         1 A1L      -0.127000
      9 C22         17.1220    -4.2930    22.4430 c3         1 A1L       0.071900
     10 C24         13.6400    -5.2780    12.4050 ca         1 A1L       0.068100
     11 C25         12.5340    -6.0480    12.0930 ca         1 A1L      -0.076000
     12 C26         12.2110    -6.2670    10.7660 ca         1 A1L      -0.145000
     13 C27         12.9840    -5.7250     9.7340 ca         1 A1L      -0.003000
     14 C28         14.0870    -4.9350    10.0700 ca         1 A1L      -0.145000
     15 C36         12.5800    -6.2810     6.0760 cc         1 A1L      -0.418400
     16 C37         11.2840    -6.8960     5.9730 c          1 A1L       0.587200
     17 C40         13.0890    -6.2010     4.7980 cd         1 A1L       0.125000
     18 O41         10.4520    -7.1940     6.8300 o          1 A1L      -0.565000
     19 C42         10.0340    -7.7750     3.9900 ca         1 A1L       0.018600
     20 C01         15.1560    -5.5270    15.6800 ca         1 A1L      -0.214800
     21 C02         16.1000    -6.3950    16.2130 ca         1 A1L       0.271300
     22 C04         16.2740    -7.5610    14.3630 ca         1 A1L       0.172900
     23 C06         14.8290    -5.8010    14.3510 ca         1 A1L       0.400300
     24 C07         14.8430    -4.5820    16.7150 cd         1 A1L      -0.036400
     25 C08         15.6030    -4.9650    17.7800 cc         1 A1L       0.140900
     26 C17         14.0610     0.3110    17.2500 c3         1 A1L       0.211100
     27 C18         14.8950    -3.6030    19.8540 cc         1 A1L       0.279900
     28 C29         14.4090    -4.7200    11.4020 ca         1 A1L      -0.076000
     29 C32         15.8460     1.8700    16.9370 c3         1 A1L       0.149600
     30 C33         14.7720     0.9040    15.0380 c3         1 A1L       0.149600
     31 C34         13.2800    -5.8270     7.2720 c          1 A1L       0.670300
     32 C44         10.0020    -9.1630     3.9380 ca         1 A1L      -0.063000
     33 C45          8.9480    -9.8090     3.3130 ca         1 A1L      -0.152500
     34 C46          7.9450    -9.0430     2.7480 ca         1 A1L       0.191000
     35 C47          7.9530    -7.6600     2.7940 ca         1 A1L      -0.152500
     36 C48          9.0090    -7.0250     3.4270 ca         1 A1L      -0.063000
     37 F49          6.9310    -9.6620     2.1340 f          1 A1L      -0.169000
     38 N03         16.6830    -7.4080    15.6110 nb         1 A1L      -0.185000
     39 N05         15.3850    -6.8110    13.7160 nb         1 A1L      -0.269000
     40 N19         15.3200    -3.4550    21.0900 nd         1 A1L      -0.527800
     41 N20         16.4000    -4.2260    21.1940 na         1 A1L       0.135800
     42 N30         12.5800    -5.9990     8.4280 ns         1 A1L      -0.144000
     43 N31         15.1780     0.6990    16.4110 n3         1 A1L      -0.711600
     44 N38         11.1170    -7.1230     4.6220 n          1 A1L      -0.183400
     45 N39         12.2260    -6.7060     3.9350 na         1 A1L      -0.396400
     46 O09         16.3700    -6.0580    17.4760 os         1 A1L      -0.278400
     47 O35         14.4010    -5.3390     7.2140 o          1 A1L      -0.614100
     48 H1          12.1970    -4.6170    16.1470 ha         1 A1L       0.118000
     49 H2          10.6690    -2.6840    16.0980 ha         1 A1L       0.113000
     50 H3          11.5120    -0.4170    16.5960 ha         1 A1L       0.108000
     51 H4          15.4410    -2.0050    17.1380 ha         1 A1L       0.130000
     52 H5          17.5260    -5.5370    19.9750 h4         1 A1L       0.166000
     53 H6          17.5250    -3.3150    22.6990 h1         1 A1L       0.058700
     54 H7          16.4630    -4.6300    23.2390 h1         1 A1L       0.058700
     55 H8          17.9420    -4.9970    22.3380 h1         1 A1L       0.058700
     56 H9          11.9250    -6.4800    12.8780 ha         1 A1L       0.125500
     57 H10         11.3480    -6.8760    10.5270 ha         1 A1L       0.134000
     58 H11         14.7000    -4.4840     9.3080 ha         1 A1L       0.134000
     59 H12         14.0320    -5.8040     4.4550 h4         1 A1L       0.242000
     60 H13         13.3000    -6.4250     2.2150 h1         1 A1L       0.063033
     61 H14         12.2490    -7.8500     2.1820 h1         1 A1L       0.063033
     62 H15         11.5530    -6.2220     2.0110 h1         1 A1L       0.063033
     63 H16         16.7060    -8.3820    13.8030 h5         1 A1L       0.056100
     64 H17         13.2350     1.0420    17.2060 h1         1 A1L       0.036700
     65 H18         14.4090     0.3040    18.2880 h1         1 A1L       0.036700
     66 H19         14.0130    -3.0820    19.5140 h4         1 A1L       0.051100
     67 H20         15.2670    -4.1080    11.6510 ha         1 A1L       0.125500
     68 H21         16.1980     1.6790    17.9520 h1         1 A1L       0.031033
     69 H22         16.7150     2.1100    16.3230 h1         1 A1L       0.031033
     70 H23         15.2030     2.7630    16.9670 h1         1 A1L       0.031033
     71 H24         15.6420     1.1510    14.4270 h1         1 A1L       0.031033
     72 H25         14.3270    -0.0030    14.6290 h1         1 A1L       0.031033
     73 H26         14.0390     1.7190    14.9230 h1         1 A1L       0.031033
     74 H27         10.8040    -9.7390     4.3800 ha         1 A1L       0.133000
     75 H28          8.9090   -10.8890     3.2630 ha         1 A1L       0.141000
     76 H29          7.1500    -7.0900     2.3460 ha         1 A1L       0.141000
     77 H30          9.0380    -5.9450     3.4800 ha         1 A1L       0.133000
     78 H31         11.6790    -6.4570     8.3290 hn         1 A1L       0.184000
     79 O23         13.9420    -5.0210    13.7320 os         1 A1L      -0.343400
     80 C43         12.3260    -6.8110     2.5010 c3         1 A1L       0.220100
@<TRIPOS>BOND
     1     1     8 2   
     2     1    25 1   
     3     1    27 1   
     4     2     3 ar  
     5     2     7 ar  
     6     2    24 1   
     7     3     4 ar  
     8     3    48 1   
     9     4     5 ar  
    10     4    49 1   
    11     5     6 ar  
    12     5    50 1   
    13     6     7 ar  
    14     6    26 1   
    15     7    51 1   
    16     8    41 1   
    17     8    52 1   
    18     9    41 1   
    19     9    53 1   
    20     9    54 1   
    21     9    55 1   
    22    10    11 ar  
    23    10    28 ar  
    24    10    79 1   
    25    11    12 ar  
    26    11    56 1   
    27    12    13 ar  
    28    12    57 1   
    29    13    14 ar  
    30    13    42 1   
    31    14    28 ar  
    32    14    58 1   
    33    15    16 1   
    34    15    17 2   
    35    15    31 1   
    36    16    18 2   
    37    16    44 1   
    38    17    45 1   
    39    17    59 1   
    40    19    32 ar  
    41    19    36 ar  
    42    19    44 1   
    43    20    21 ar  
    44    20    23 ar  
    45    20    24 1   
    46    21    38 ar  
    47    21    46 1   
    48    22    38 ar  
    49    22    39 ar  
    50    22    63 1   
    51    23    39 ar  
    52    23    79 1   
    53    24    25 2   
    54    25    46 1   
    55    26    43 1   
    56    26    64 1   
    57    26    65 1   
    58    27    40 2   
    59    27    66 1   
    60    28    67 1   
    61    29    43 1   
    62    29    68 1   
    63    29    69 1   
    64    29    70 1   
    65    30    43 1   
    66    30    71 1   
    67    30    72 1   
    68    30    73 1   
    69    31    42 1   
    70    31    47 2   
    71    32    33 ar  
    72    32    74 1   
    73    33    34 ar  
    74    33    75 1   
    75    34    35 ar  
    76    34    37 1   
    77    35    36 ar  
    78    35    76 1   
    79    36    77 1   
    80    40    41 1   
    81    42    78 1   
    82    44    45 1   
    83    45    80 1   
    84    60    80 1   
    85    61    80 1   
    86    62    80 1   
@<TRIPOS>SUBSTRUCTURE
     1 A1L         1 TEMP              0 ****  ****    0 ROOT
