@<TRIPOS>MOLECULE
A1L
   72    76     1     0     0
SMALL
abcg2


@<TRIPOS>ATOM
      1 C10        -49.5250   -35.6450    36.3540 ca         1 A1L      -0.061000
      2 C11        -49.6310   -37.0290    36.1500 cp         1 A1L      -0.190500
      3 C12        -50.8480   -37.7900    36.4700 cp         1 A1L       0.205500
      4 C14        -52.1500   -39.6140    36.0200 ca         1 A1L       0.377900
      5 N15        -52.4390   -40.7410    35.2880 nu         1 A1L      -0.897800
      6 C17        -52.5620   -42.3520    33.5470 ca         1 A1L      -0.231000
      7 C18        -52.1110   -42.8320    32.3420 ca         1 A1L      -0.017000
      8 C19        -51.0590   -42.1860    31.6890 ca         1 A1L      -0.245600
      9 C20        -50.6230   -42.5360    30.3050 c          1 A1L       0.629700
     10 C24        -48.8240   -44.9310    28.4940 c6         1 A1L       0.144300
     11 C27        -49.0710   -47.7380    27.6880 c3         1 A1L      -0.092100
     12 C28        -49.0380   -48.3730    30.0870 c3         1 A1L      -0.092100
     13 C29        -48.7910   -45.5260    30.7590 c6         1 A1L       0.144300
     14 C30        -50.1540   -44.8780    31.0110 c6         1 A1L       0.060500
     15 C31        -50.5220   -41.0750    32.3190 ca         1 A1L       0.423900
     16 N32        -50.9300   -40.6100    33.4920 nb         1 A1L      -0.690000
     17 C34        -52.8070   -38.2990    37.7290 ca         1 A1L       0.111900
     18 C35        -51.7290   -37.4690    37.4950 ca         1 A1L       0.019000
     19 C01        -43.7240   -33.5720    33.2650 c3         1 A1L      -0.114100
     20 C02        -43.4440   -34.4090    34.5020 c3         1 A1L       0.228300
     21 C04        -43.1020   -36.8070    33.9040 c3         1 A1L       0.228300
     22 C05        -42.3390   -37.5110    35.0150 c3         1 A1L      -0.114100
     23 C06        -45.2360   -36.0010    34.7740 cc         1 A1L       0.671100
     24 C08        -47.2660   -35.6450    35.5410 ca         1 A1L       0.177400
     25 C09        -48.3680   -34.9560    36.0480 ca         1 A1L      -0.102000
     26 C16        -51.9400   -41.2170    34.0950 ca         1 A1L       0.634900
     27 C23        -50.1890   -44.2680    28.6490 c6         1 A1L       0.060500
     28 C26        -49.3780   -47.2570    29.1040 c3         1 A1L       0.186500
     29 C37        -48.5460   -37.7250    35.6090 ca         1 A1L       0.006000
     30 C38        -47.3890   -37.0310    35.3280 ca         1 A1L      -0.220000
     31 F36        -51.5430   -36.4050    38.2850 f          1 A1L      -0.160000
     32 N03        -43.9810   -35.7600    34.3970 nh         1 A1L      -0.738600
     33 N07        -46.0600   -35.0970    35.2220 nd         1 A1L      -0.653100
     34 N13        -51.0850   -38.8860    35.7500 nb         1 A1L      -0.179000
     35 N22        -50.4000   -43.8360    30.0230 n          1 A1L      -0.409800
     36 N25        -48.6130   -46.0410    29.4120 n3         1 A1L      -0.716600
     37 N33        -53.0320   -39.3710    36.9940 nb         1 A1L      -0.225000
     38 O21        -50.5330   -41.6430    29.4700 o          1 A1L      -0.596100
     39 S39        -45.8890   -37.6460    34.6970 ss         1 A1L      -0.037200
     40 H1         -50.3660   -35.0820    36.7300 ha         1 A1L       0.123000
     41 H2         -53.2470   -41.2320    35.6400 hn         1 A1L       0.515000
     42 H3         -53.3890   -42.8290    34.0570 ha         1 A1L       0.125000
     43 H4         -52.5930   -43.6960    31.9010 ha         1 A1L       0.123000
     44 H5         -48.6920   -45.2510    27.4620 h1         1 A1L       0.061950
     45 H6         -48.0470   -44.1840    28.6870 h1         1 A1L       0.061950
     46 H7         -49.5310   -48.7120    27.5200 hc         1 A1L       0.038533
     47 H8         -49.4540   -47.0720    26.9160 hc         1 A1L       0.038533
     48 H9         -47.9940   -47.8450    27.5440 hc         1 A1L       0.038533
     49 H10        -49.3810   -48.1720    31.1020 hc         1 A1L       0.038533
     50 H11        -49.5190   -49.2990    29.7710 hc         1 A1L       0.038533
     51 H12        -47.9610   -48.5450    30.1180 hc         1 A1L       0.038533
     52 H13        -48.6290   -46.3070    31.5010 h1         1 A1L       0.061950
     53 H14        -48.0170   -44.7700    30.9330 h1         1 A1L       0.061950
     54 H15        -50.1570   -44.4570    32.0130 h1         1 A1L       0.058200
     55 H16        -50.9530   -45.6240    30.9660 h1         1 A1L       0.058200
     56 H17        -49.7050   -40.5300    31.8570 h4         1 A1L       0.038100
     57 H18        -53.4990   -38.0850    38.5370 h4         1 A1L       0.040100
     58 H19        -43.2740   -32.5840    33.3720 hc         1 A1L       0.045367
     59 H20        -43.3040   -34.0350    32.3720 hc         1 A1L       0.045367
     60 H21        -44.7940   -33.4400    33.1140 hc         1 A1L       0.045367
     61 H22        -43.8560   -33.9300    35.3890 h1         1 A1L       0.056700
     62 H23        -42.3700   -34.5020    34.6640 h1         1 A1L       0.056700
     63 H24        -42.4080   -36.3430    33.2040 h1         1 A1L       0.056700
     64 H25        -43.6790   -37.5230    33.3130 h1         1 A1L       0.056700
     65 H26        -41.6760   -38.2660    34.5910 hc         1 A1L       0.045367
     66 H27        -41.7270   -36.8060    35.5770 hc         1 A1L       0.045367
     67 H28        -43.0140   -38.0090    35.7110 hc         1 A1L       0.045367
     68 H29        -48.3100   -33.8870    36.2020 ha         1 A1L       0.131000
     69 H30        -50.2720   -43.4130    27.9830 h1         1 A1L       0.058200
     70 H31        -50.9850   -44.9720    28.3830 h1         1 A1L       0.058200
     71 H32        -50.4650   -47.0860    29.1650 h1         1 A1L       0.019700
     72 H33        -48.6180   -38.7890    35.4310 ha         1 A1L       0.146000
@<TRIPOS>BOND
     1     1     2 ar  
     2     1    25 ar  
     3     1    40 1   
     4     2     3 1   
     5     2    29 ar  
     6     3    18 ar  
     7     3    34 ar  
     8     4     5 1   
     9     4    34 ar  
    10     4    37 ar  
    11     5    26 1   
    12     5    41 1   
    13     6     7 ar  
    14     6    26 ar  
    15     6    42 1   
    16     7     8 ar  
    17     7    43 1   
    18     8     9 1   
    19     8    15 ar  
    20     9    35 1   
    21     9    38 2   
    22    10    27 1   
    23    10    36 1   
    24    10    44 1   
    25    10    45 1   
    26    11    28 1   
    27    11    46 1   
    28    11    47 1   
    29    11    48 1   
    30    12    28 1   
    31    12    49 1   
    32    12    50 1   
    33    12    51 1   
    34    13    14 1   
    35    13    36 1   
    36    13    52 1   
    37    13    53 1   
    38    14    35 1   
    39    14    54 1   
    40    14    55 1   
    41    15    16 ar  
    42    15    56 1   
    43    16    26 ar  
    44    17    18 ar  
    45    17    37 ar  
    46    17    57 1   
    47    18    31 1   
    48    19    20 1   
    49    19    58 1   
    50    19    59 1   
    51    19    60 1   
    52    20    32 1   
    53    20    61 1   
    54    20    62 1   
    55    21    22 1   
    56    21    32 1   
    57    21    63 1   
    58    21    64 1   
    59    22    65 1   
    60    22    66 1   
    61    22    67 1   
    62    23    32 1   
    63    23    33 2   
    64    23    39 1   
    65    24    25 ar  
    66    24    30 ar  
    67    24    33 1   
    68    25    68 1   
    69    27    35 1   
    70    27    69 1   
    71    27    70 1   
    72    28    36 1   
    73    28    71 1   
    74    29    30 ar  
    75    29    72 1   
    76    30    39 1   
@<TRIPOS>SUBSTRUCTURE
     1 A1L         1 TEMP              0 ****  ****    0 ROOT
