@<TRIPOS>MOLECULE
A1L
   33    35     1     0     0
SMALL
abcg2


@<TRIPOS>ATOM
      1 C10        -64.3170    31.1400   115.0620 c5         1 A1L       0.284000
      2 C11        -65.2570    30.8310   113.8720 c5         1 A1L       0.158300
      3 C12        -65.8850    29.5200   114.3180 c5         1 A1L       0.185500
      4 C13        -64.9860    31.9490   116.1670 c3         1 A1L       0.149600
      5 C14        -64.7390    28.8910   115.0690 c2         1 A1L       0.018900
      6 C15        -63.0310    32.8780   113.7840 ca         1 A1L       0.120500
      7 C16        -61.8330    31.6370   115.1260 cc         1 A1L       0.452700
      8 C17        -61.7030    33.2690   113.7930 ca         1 A1L      -0.090600
      9 C18        -64.4900    27.6060   115.2640 c2         1 A1L      -0.341000
     10 C19        -61.3660    34.3570   112.9660 ca         1 A1L       0.456900
     11 C20        -63.5810    34.4620   112.3490 ca         1 A1L       0.195900
     12 N05        -63.1000    31.8140   114.6350 na         1 A1L      -0.286300
     13 N06        -60.9700    32.4770   114.6370 nd         1 A1L      -0.565100
     14 N07        -64.0130    33.4460   113.0800 nb         1 A1L      -0.273000
     15 N08        -62.3450    34.9340   112.2560 nb         1 A1L      -0.303000
     16 N09        -60.1250    34.8260   112.8610 nv         1 A1L      -1.058900
     17 O01        -63.9250    29.8760   115.5510 os         1 A1L      -0.330100
     18 O02        -66.2080    31.8000   113.5960 oh         1 A1L      -0.653000
     19 O03        -66.3440    28.7860   113.2260 oh         1 A1L      -0.627000
     20 O04        -64.0720    32.0570   117.2240 oh         1 A1L      -0.649000
     21 H1         -64.6210    30.6130   113.0000 h1         1 A1L       0.077700
     22 H2         -66.6980    29.7400   115.0250 h1         1 A1L       0.061700
     23 H3         -65.2710    32.9270   115.7650 h1         1 A1L       0.047200
     24 H4         -65.9110    31.4400   116.4660 h1         1 A1L       0.047200
     25 H5         -61.6010    30.8600   115.8370 h5         1 A1L       0.085800
     26 H7         -63.6240    27.2630   115.8110 ha         1 A1L       0.184000
     27 H8         -65.1680    26.8610   114.8720 ha         1 A1L       0.184000
     28 H9         -64.3290    34.9720   111.7530 h5         1 A1L       0.047100
     29 H11        -59.9320    35.6280   112.2840 hn         1 A1L       0.509500
     30 H12        -59.3740    34.4370   113.4040 hn         1 A1L       0.509500
     31 H13        -65.7120    32.5670   113.2470 ho         1 A1L       0.498000
     32 H14        -66.9910    28.1430   113.5300 ho         1 A1L       0.454000
     33 H15        -64.3840    32.7370   117.8280 ho         1 A1L       0.450000
@<TRIPOS>BOND
     1     1     2 1   
     2     1     4 1   
     3     1    12 1   
     4     1    17 1   
     5     2     3 1   
     6     2    18 1   
     7     2    21 1   
     8     3     5 1   
     9     3    19 1   
    10     3    22 1   
    11     4    20 1   
    12     4    23 1   
    13     4    24 1   
    14     5     9 2   
    15     5    17 1   
    16     6     8 ar  
    17     6    12 1   
    18     6    14 ar  
    19     7    12 1   
    20     7    13 2   
    21     7    25 1   
    22     8    10 ar  
    23     8    13 1   
    24     9    26 1   
    25     9    27 1   
    26    10    15 ar  
    27    10    16 1   
    28    11    14 ar  
    29    11    15 ar  
    30    11    28 1   
    31    16    29 1   
    32    16    30 1   
    33    18    31 1   
    34    19    32 1   
    35    20    33 1   
@<TRIPOS>SUBSTRUCTURE
     1 A1L         1 TEMP              0 ****  ****    0 ROOT
