@<TRIPOS>MOLECULE
A1L
   71    75     1     0     0
SMALL
abcg2


@<TRIPOS>ATOM
      1 C1          13.6960    11.4620     4.0520 c3         1 A1L      -0.084600
      2 C2          12.8110    13.7540     3.4670 c3         1 A1L      -0.084600
      3 C3          13.3180    12.4190     2.9220 c3         1 A1L      -0.107000
      4 C4          15.6280    12.0150    -1.5770 c3         1 A1L      -0.058800
      5 O1          14.2780     9.5440     0.5800 o          1 A1L      -0.502000
      6 N1           9.9860     9.6940    -1.5020 nh         1 A1L      -0.695400
      7 C5          11.8550    15.8780    -0.7500 cp         1 A1L      -0.259500
      8 C6          14.4950    12.6370     2.0030 ca         1 A1L       0.397300
      9 N2          15.5450    13.2630     2.5250 nb         1 A1L      -0.668000
     10 C7          16.6030    13.4880     1.7620 ca         1 A1L       0.355900
     11 C8          16.6840    13.1050     0.4330 ca         1 A1L      -0.177000
     12 C9          15.6070    12.4470    -0.1450 ca         1 A1L      -0.022300
     13 C10         14.5040    12.2180     0.6760 ca         1 A1L      -0.013400
     14 C11         11.1060    10.2570    -0.9810 cc         1 A1L       0.331800
     15 C12         12.1640     9.5490    -0.4480 cd         1 A1L      -0.198900
     16 C13         13.3550    10.1780     0.1050 c          1 A1L       0.597200
     17 N3          13.3640    11.5600     0.1230 n          1 A1L      -0.285500
     18 C14         10.3910    12.5430    -1.7270 ca         1 A1L      -0.006000
     19 C15         11.2390    11.7010    -1.0110 ca         1 A1L      -0.189800
     20 C16         12.3440    12.3140    -0.4030 ca         1 A1L       0.534900
     21 N4          12.4850    13.6250    -0.3310 nb         1 A1L      -0.738000
     22 C17         11.6170    14.4320    -0.9150 cp         1 A1L       0.508500
     23 C18         10.5770    13.9080    -1.6910 ca         1 A1L       0.026000
     24 C19          9.9910     8.3940    -2.1550 c6         1 A1L       0.189800
     25 C20          8.9790     8.4090    -3.2950 c6         1 A1L       0.087000
     26 N5           7.6600     8.7530    -2.8040 n          1 A1L      -0.412800
     27 C21          7.6390    10.0410    -2.1390 c6         1 A1L       0.087000
     28 C22          8.6590    10.0760    -1.0160 c6         1 A1L       0.189800
     29 C23         13.1170    16.4380    -1.0390 ca         1 A1L       0.357000
     30 C24         13.2530    17.8190    -0.8860 ca         1 A1L       0.038000
     31 C25         12.2260    18.6110    -0.4270 ca         1 A1L       0.188000
     32 C26         11.0020    18.0510    -0.1030 ca         1 A1L       0.051000
     33 C27         10.8410    16.6940    -0.2670 ca         1 A1L       0.223000
     34 N6          14.1580    15.7010    -1.5270 nv         1 A1L      -1.056000
     35 CL           9.5770    14.9230    -2.6520 cl         1 A1L      -0.151000
     36 F1          14.4270    18.3910    -1.1780 f          1 A1L      -0.159000
     37 F2          12.4130    19.9160    -0.2780 f          1 A1L      -0.133000
     38 F3          10.0160    18.8110     0.3720 f          1 A1L      -0.138000
     39 F4           9.6710    16.1580     0.0770 f          1 A1L      -0.144000
     40 C28          6.6010     7.9090    -2.7060 c          1 A1L       0.610300
     41 O2           5.6110     8.1850    -2.0440 o          1 A1L      -0.594100
     42 C29          6.6670     6.6360    -3.4790 ce         1 A1L      -0.301200
     43 C30          5.8940     5.6040    -3.1610 c2         1 A1L      -0.228000
     44 N7          12.1280     7.0150    -0.0150 n1         1 A1L      -0.453000
     45 H1          12.8370    11.2810     4.6980 hc         1 A1L       0.042033
     46 H2          14.0310    10.4990     3.6630 hc         1 A1L       0.042033
     47 H3          14.4970    11.8800     4.6630 hc         1 A1L       0.042033
     48 H4          11.9260    13.5950     4.0850 hc         1 A1L       0.042033
     49 H5          13.5690    14.2400     4.0820 hc         1 A1L       0.042033
     50 H6          12.5400    14.4350     2.6600 hc         1 A1L       0.042033
     51 H7          12.5030    11.9610     2.3580 hc         1 A1L       0.046700
     52 H8          15.5850    10.9280    -1.6650 hc         1 A1L       0.053367
     53 H9          14.7790    12.4180    -2.1330 hc         1 A1L       0.053367
     54 H10         16.5380    12.3520    -2.0680 hc         1 A1L       0.053367
     55 H11         17.4360    14.0030     2.2280 h4         1 A1L       0.023100
     56 H12         17.5740    13.3200    -0.1430 ha         1 A1L       0.126000
     57 H13          9.6040    12.1320    -2.3430 ha         1 A1L       0.147000
     58 H14          9.7410     7.5880    -1.4580 h1         1 A1L       0.064700
     59 H15         10.9770     8.1980    -2.5750 h1         1 A1L       0.064700
     60 H16          8.9900     7.4320    -3.7670 h1         1 A1L       0.067700
     61 H17          9.2860     9.1440    -4.0450 h1         1 A1L       0.067700
     62 H18          7.8590    10.8180    -2.8780 h1         1 A1L       0.067700
     63 H19          6.6490    10.2360    -1.7370 h1         1 A1L       0.067700
     64 H20          8.6820    11.0620    -0.5550 h1         1 A1L       0.064700
     65 H21          8.3640     9.3670    -0.2340 h1         1 A1L       0.064700
     66 H22         15.0650    16.1390    -1.5140 hn         1 A1L       0.480500
     67 H23         14.1930    14.7420    -1.2220 hn         1 A1L       0.480500
     68 H24          7.3270     6.5590    -4.3330 ha         1 A1L       0.182000
     69 H26          5.9250     4.6890    -3.7370 ha         1 A1L       0.177000
     70 H27          5.2160     5.6300    -2.3190 ha         1 A1L       0.177000
     71 C31         12.1300     8.1480    -0.2320 ch         1 A1L       0.306700
@<TRIPOS>BOND
     1     1     3 1   
     2     1    45 1   
     3     1    46 1   
     4     1    47 1   
     5     2     3 1   
     6     2    48 1   
     7     2    49 1   
     8     2    50 1   
     9     3     8 1   
    10     3    51 1   
    11     4    12 1   
    12     4    52 1   
    13     4    53 1   
    14     4    54 1   
    15     5    16 2   
    16     6    14 1   
    17     6    24 1   
    18     6    28 1   
    19     7    22 1   
    20     7    29 ar  
    21     7    33 ar  
    22     8     9 ar  
    23     8    13 ar  
    24     9    10 ar  
    25    10    11 ar  
    26    10    55 1   
    27    11    12 ar  
    28    11    56 1   
    29    12    13 ar  
    30    13    17 1   
    31    14    15 2   
    32    14    19 1   
    33    15    16 1   
    34    15    71 1   
    35    16    17 1   
    36    17    20 1   
    37    18    19 ar  
    38    18    23 ar  
    39    18    57 1   
    40    19    20 ar  
    41    20    21 ar  
    42    21    22 ar  
    43    22    23 ar  
    44    23    35 1   
    45    24    25 1   
    46    24    58 1   
    47    24    59 1   
    48    25    26 1   
    49    25    60 1   
    50    25    61 1   
    51    26    27 1   
    52    26    40 1   
    53    27    28 1   
    54    27    62 1   
    55    27    63 1   
    56    28    64 1   
    57    28    65 1   
    58    29    30 ar  
    59    29    34 1   
    60    30    31 ar  
    61    30    36 1   
    62    31    32 ar  
    63    31    37 1   
    64    32    33 ar  
    65    32    38 1   
    66    33    39 1   
    67    34    66 1   
    68    34    67 1   
    69    40    41 2   
    70    40    42 1   
    71    42    43 2   
    72    42    68 1   
    73    43    69 1   
    74    43    70 1   
    75    44    71 3   
@<TRIPOS>SUBSTRUCTURE
     1 A1L         1 TEMP              0 ****  ****    0 ROOT
