@<TRIPOS>MOLECULE
A1L
   40    42     1     0     0
SMALL
abcg2


@<TRIPOS>ATOM
      1 C02         -2.6930   -20.4120     6.9650 c          1 A1L       0.541600
      2 C04         -1.6910   -21.5020     5.0250 c3         1 A1L       0.108000
      3 C05         -2.0350   -20.6090     3.8330 c5         1 A1L      -0.103700
      4 C06         -2.0240   -21.4120     2.5280 c5         1 A1L      -0.092400
      5 C07         -0.5510   -21.4440     2.1120 c5         1 A1L       0.227800
      6 C18         -0.9620   -19.5580     3.5600 c5         1 A1L       0.235800
      7 C19         -2.3830   -19.6290     8.1930 cc         1 A1L       0.353500
      8 C22         -2.7830   -18.5320     9.9350 cc         1 A1L       0.486500
      9 C23         -3.5600   -17.8870    10.9780 ca         1 A1L      -0.151500
     10 C24         -4.9500   -17.9170    10.9560 ca         1 A1L      -0.034000
     11 C25         -5.6570   -17.2800    11.9720 ca         1 A1L      -0.021000
     12 C26         -7.0860   -17.3050    11.9520 cg         1 A1L       0.317000
     13 C28         -4.9940   -16.6200    13.0050 ca         1 A1L      -0.048000
     14 C29         -3.6090   -16.5990    13.0160 ca         1 A1L      -0.121000
     15 C30         -2.8930   -17.2260    12.0110 ca         1 A1L      -0.041000
     16 N03         -1.6110   -20.7800     6.2770 ns         1 A1L      -0.484900
     17 N08          0.0180   -20.2890     2.7800 nh         1 A1L      -0.791600
     18 N17          2.1550   -20.6440     2.0020 n2         1 A1L      -0.862100
     19 N20         -1.2440   -19.2790     8.6730 nd         1 A1L      -0.349000
     20 N21         -1.4970   -18.5680     9.8030 nd         1 A1L      -0.357000
     21 N27         -8.2370   -17.3200    11.9420 n1         1 A1L      -0.435000
     22 O01         -3.8490   -20.6610     6.6780 o          1 A1L      -0.560100
     23 O31         -3.3960   -19.1880     8.9440 os         1 A1L      -0.230000
     24 H1          -2.4360   -22.2940     5.1150 h1         1 A1L       0.066200
     25 H2          -0.7260   -21.9890     4.8780 h1         1 A1L       0.066200
     26 H3          -3.0060   -20.1420     4.0040 hc         1 A1L       0.081700
     27 H4          -2.6180   -20.8920     1.7750 hc         1 A1L       0.057700
     28 H5          -2.4440   -22.4120     2.6380 hc         1 A1L       0.057700
     29 H6          -0.4270   -21.3840     1.0280 h1         1 A1L       0.054200
     30 H7          -0.0480   -22.3590     2.4410 h1         1 A1L       0.054200
     31 H8           1.5860   -19.1020     3.3070 h5         1 A1L      -0.032200
     32 H9          -0.5160   -19.1440     4.4670 h1         1 A1L       0.044700
     33 H10         -1.3880   -18.7220     2.9950 h1         1 A1L       0.044700
     34 H11         -5.4890   -18.4210    10.1660 ha         1 A1L       0.146000
     35 H12         -5.5580   -16.1300    13.7870 ha         1 A1L       0.132000
     36 H13         -3.0850   -16.0890    13.8130 ha         1 A1L       0.130000
     37 H14         -1.8120   -17.2030    12.0260 ha         1 A1L       0.144000
     38 H15         -0.7030   -20.4930     6.6110 hn         1 A1L       0.343500
     39 H16          3.0780   -20.2410     2.1070 hn         1 A1L       0.381400
     40 C09          1.3220   -19.9750     2.7060 c2         1 A1L       0.642100
@<TRIPOS>BOND
     1     1     7 1   
     2     1    16 1   
     3     1    22 2   
     4     2     3 1   
     5     2    16 1   
     6     2    24 1   
     7     2    25 1   
     8     3     4 1   
     9     3     6 1   
    10     3    26 1   
    11     4     5 1   
    12     4    27 1   
    13     4    28 1   
    14     5    17 1   
    15     5    29 1   
    16     5    30 1   
    17     6    17 1   
    18     6    32 1   
    19     6    33 1   
    20     7    19 2   
    21     7    23 1   
    22     8     9 1   
    23     8    20 2   
    24     8    23 1   
    25     9    10 ar  
    26     9    15 ar  
    27    10    11 ar  
    28    10    34 1   
    29    11    12 1   
    30    11    13 ar  
    31    12    21 3   
    32    13    14 ar  
    33    13    35 1   
    34    14    15 ar  
    35    14    36 1   
    36    15    37 1   
    37    16    38 1   
    38    17    40 1   
    39    18    39 1   
    40    18    40 2   
    41    19    20 1   
    42    31    40 1   
@<TRIPOS>SUBSTRUCTURE
     1 A1L         1 TEMP              0 ****  ****    0 ROOT
