@<TRIPOS>MOLECULE
A1L
   26    26     1     0     0
SMALL
abcg2


@<TRIPOS>ATOM
      1 CA           8.5590    18.1240    28.4590 c3         1 A1L       0.009500
      2 CB           7.4310    17.8790    27.4540 c3         1 A1L      -0.044400
      3 C            8.9020    16.7900    29.1770 c          1 A1L       0.695000
      4 CG           6.9420    19.1380    26.7330 c6         1 A1L      -0.129700
      5 CD1          6.4450    20.2060    27.7020 c6         1 A1L      -0.070400
      6 CE1          5.7290    21.3210    26.9600 c6         1 A1L      -0.093400
      7 CF           4.5130    20.7580    26.2560 c6         1 A1L       0.122000
      8 CD2          5.9180    18.7620    25.6710 c          1 A1L       0.564000
      9 N            9.6680    18.7970    27.8020 n8         1 A1L      -1.006200
     10 NE2          4.8620    19.5750    25.4940 ns         1 A1L      -0.521900
     11 OD2          6.0670    17.7650    24.9710 o          1 A1L      -0.585000
     12 OXT         10.0580    16.3430    29.0470 o          1 A1L      -0.733000
     13 H1           8.1840    18.8020    29.2360 h1         1 A1L       0.033700
     14 H2           6.5930    17.4160    27.9800 hc         1 A1L       0.057700
     15 H3           7.7760    17.1530    26.7120 hc         1 A1L       0.057700
     16 H6           7.7890    19.5610    26.1780 hc         1 A1L       0.079700
     17 H7           5.7650    19.7560    28.4340 hc         1 A1L       0.056200
     18 H8           7.2900    20.6070    28.2630 hc         1 A1L       0.056200
     19 H9           6.4050    21.7800    26.2330 hc         1 A1L       0.040200
     20 H10          5.4120    22.1100    27.6450 hc         1 A1L       0.040200
     21 H11          4.0830    21.4920    25.5730 h1         1 A1L       0.023200
     22 H12          3.7400    20.5170    26.9930 h1         1 A1L       0.023200
     23 H13         10.3980    18.9630    28.4840 hn         1 A1L       0.383500
     24 H14         10.0850    18.1540    27.1390 hn         1 A1L       0.383500
     25 H16          4.2030    19.2800    24.7880 hn         1 A1L       0.295500
     26 O            7.9710    16.2750    29.8320 o          1 A1L      -0.733000
@<TRIPOS>BOND
     1     1     2 1   
     2     1     3 1   
     3     1     9 1   
     4     1    13 1   
     5     2     4 1   
     6     2    14 1   
     7     2    15 1   
     8     3    12 1   
     9     3    26 1   
    10     4     5 1   
    11     4     8 1   
    12     4    16 1   
    13     5     6 1   
    14     5    17 1   
    15     5    18 1   
    16     6     7 1   
    17     6    19 1   
    18     6    20 1   
    19     7    10 1   
    20     7    21 1   
    21     7    22 1   
    22     8    10 1   
    23     8    11 2   
    24     9    23 1   
    25     9    24 1   
    26    10    25 1   
@<TRIPOS>SUBSTRUCTURE
     1 A1L         1 TEMP              0 ****  ****    0 ROOT
