@<TRIPOS>MOLECULE
A1L
   85    86     1     0     0
SMALL
abcg2


@<TRIPOS>ATOM
      1 C10         16.0420     5.0470    26.4200 c3         1 A1L      -0.083400
      2 C13         12.2900     2.4420    27.9100 ca         1 A1L      -0.125300
      3 C15         10.9890     2.9480    25.9290 ca         1 A1L      -0.213000
      4 C21          6.1240     0.4010    26.3990 c3         1 A1L      -0.089600
      5 C26         14.3870     8.4310    18.1990 c3         1 A1L       0.169300
      6 C28         13.0870     7.8410    17.6590 c3         1 A1L      -0.087400
      7 C01         14.4030     7.7630    22.4590 ca         1 A1L      -0.220000
      8 C02         14.3330     6.7920    21.4660 ca         1 A1L       0.176100
      9 C03         14.2040     5.4370    21.8110 ca         1 A1L      -0.116300
     10 C04         14.1490     5.1070    23.1570 ca         1 A1L      -0.042000
     11 C05         14.2140     6.0580    24.1830 ca         1 A1L      -0.022500
     12 C06         14.3450     7.3890    23.7970 ca         1 A1L      -0.039000
     13 C09         13.0460     4.1730    26.3480 ca         1 A1L       0.000500
     14 C11         13.8330     7.0040    27.1460 c3         1 A1L      -0.083400
     15 C12         13.1940     3.4140    27.5160 ca         1 A1L      -0.045000
     16 C14         11.1680     2.2130    27.0960 ca         1 A1L       0.154100
     17 C16         11.9230     3.9160    25.5700 ca         1 A1L      -0.027000
     18 C18          9.1880     0.9350    26.7520 c3         1 A1L       0.174600
     19 C19          8.4340    -0.2050    27.4310 c3         1 A1L       0.188000
     20 C23          7.1810    -0.8490    29.5890 c3         1 A1L      -0.089600
     21 C25         14.4540     8.4010    19.7110 c3         1 A1L       0.167600
     22 C30         11.5930     7.5090    15.5660 c          1 A1L       0.721000
     23 C35         12.3440     7.2760    27.3720 c3         1 A1L      -0.041400
     24 C36         11.5830     7.6860    26.1190 c3         1 A1L      -0.092600
     25 C37         16.7420     4.0660    25.4770 c3         1 A1L      -0.041400
     26 C38         16.1320     2.6710    25.4730 c3         1 A1L      -0.092600
     27 O07         14.3830     7.0570    20.1480 os         1 A1L      -0.315100
     28 O17         10.3210     1.2620    27.5290 os         1 A1L      -0.339100
     29 O24          9.3600    -1.2780    27.5010 oh         1 A1L      -0.646000
     30 O27         15.5420     7.7800    17.7090 oh         1 A1L      -0.672000
     31 O31         10.7390     7.0700    16.3610 o          1 A1L      -0.737500
     32 O32         11.4740     7.6220    14.3290 o          1 A1L      -0.737500
     33 SI08        14.2660     5.5580    25.9940 s6         1 A1L      -0.283000
     34 H102        16.6160     5.9810    26.4560 h1         1 A1L       0.048200
     35 H101        16.0650     4.6550    27.4440 h1         1 A1L       0.048200
     36 H151        10.1330     2.7870    25.2880 ha         1 A1L       0.115000
     37 H202         7.6550    -0.8380    25.5340 hc         1 A1L       0.051450
     38 H201         6.8420    -1.5520    26.9010 hc         1 A1L       0.051450
     39 H213         5.3690     0.0300    25.7070 hc         1 A1L       0.033033
     40 H211         5.6270     0.5800    27.3540 hc         1 A1L       0.033033
     41 H212         6.4640     1.3640    26.0180 hc         1 A1L       0.033033
     42 H221         8.8520     0.4830    29.4260 hc         1 A1L       0.051450
     43 H222         7.3720     1.1230    28.7610 hc         1 A1L       0.051450
     44 H261        14.4070     9.5000    17.9320 h1         1 A1L       0.019700
     45 H282        13.0000     6.7930    17.9550 hc         1 A1L       0.057700
     46 H281        12.2590     8.3680    18.1400 hc         1 A1L       0.057700
     47 H011        14.5050     8.8110    22.2130 ha         1 A1L       0.114000
     48 H041        14.0450     4.0550    23.4070 ha         1 A1L       0.105000
     49 H061        14.4020     8.1730    24.5420 ha         1 A1L       0.096000
     50 H111        14.3020     6.7690    28.1090 h1         1 A1L       0.048200
     51 H112        14.3350     7.9160    26.8030 h1         1 A1L       0.048200
     52 H121        14.0560     3.5770    28.1570 ha         1 A1L       0.100000
     53 H161        11.7500     4.4730    24.6570 ha         1 A1L       0.119000
     54 H181         8.5320     1.8060    26.6490 h1         1 A1L       0.043700
     55 H182         9.4920     0.6220    25.7450 h1         1 A1L       0.043700
     56 H231         6.9290    -0.4930    30.5880 hc         1 A1L       0.033033
     57 H233         6.2450    -1.1020    29.0900 hc         1 A1L       0.033033
     58 H232         7.7490    -1.7730    29.7170 hc         1 A1L       0.033033
     59 H252        13.6190     8.9860    20.1120 h1         1 A1L       0.031200
     60 H251        15.3840     8.8670    20.0570 h1         1 A1L       0.031200
     61 H292        13.1130     9.0070    15.8460 hc         1 A1L       0.013700
     62 H291        13.7300     7.3910    15.6410 hc         1 A1L       0.013700
     63 H331        15.0380     4.3690    20.1330 hc         1 A1L       0.046367
     64 H332        14.0130     3.3980    21.1850 hc         1 A1L       0.046367
     65 H333        13.2960     4.5520    20.0630 hc         1 A1L       0.046367
     66 H342        11.6630     1.7780    29.8670 hc         1 A1L       0.037367
     67 H341        12.5720     0.5800    28.9650 hc         1 A1L       0.037367
     68 H343        13.4040     1.9620    29.6720 hc         1 A1L       0.037367
     69 H352        11.8750     6.3870    27.8010 hc         1 A1L       0.032950
     70 H351        12.2340     8.0630    28.1250 hc         1 A1L       0.032950
     71 H363        10.5430     7.9210    26.3500 hc         1 A1L       0.032200
     72 H362        12.0280     8.5680    25.6550 hc         1 A1L       0.032200
     73 H361        11.5790     6.8930    25.3690 hc         1 A1L       0.032200
     74 H372        16.7380     4.4660    24.4590 hc         1 A1L       0.032950
     75 H371        17.7960     3.9890    25.7610 hc         1 A1L       0.032950
     76 H383        16.7150     1.9860    24.8550 hc         1 A1L       0.032200
     77 H381        16.0920     2.2580    26.4830 hc         1 A1L       0.032200
     78 H382        15.1120     2.6760    25.0870 hc         1 A1L       0.032200
     79 H241         8.8940    -2.0650    27.8000 ho         1 A1L       0.437000
     80 H271        15.5630     7.8790    16.7530 ho         1 A1L       0.450000
     81 C33         14.1330     4.3860    20.7430 c3         1 A1L      -0.035800
     82 C20          7.2570    -0.6100    26.5270 c3         1 A1L      -0.104900
     83 C22          7.9740     0.2120    28.8360 c3         1 A1L      -0.104900
     84 C34         12.4910     1.6500    29.1680 c3         1 A1L      -0.028800
     85 C29         12.9480     7.9660    16.1500 c3         1 A1L      -0.215400
@<TRIPOS>BOND
     1     1    25 1   
     2     1    33 1   
     3     1    34 1   
     4     1    35 1   
     5     2    15 ar  
     6     2    16 ar  
     7     2    84 1   
     8     3    16 ar  
     9     3    17 ar  
    10     3    36 1   
    11     4    39 1   
    12     4    40 1   
    13     4    41 1   
    14     4    82 1   
    15     5     6 1   
    16     5    21 1   
    17     5    30 1   
    18     5    44 1   
    19     6    45 1   
    20     6    46 1   
    21     6    85 1   
    22     7     8 ar  
    23     7    12 ar  
    24     7    47 1   
    25     8     9 ar  
    26     8    27 1   
    27     9    10 ar  
    28     9    81 1   
    29    10    11 ar  
    30    10    48 1   
    31    11    12 ar  
    32    11    33 1   
    33    12    49 1   
    34    13    15 ar  
    35    13    17 ar  
    36    13    33 1   
    37    14    23 1   
    38    14    33 1   
    39    14    50 1   
    40    14    51 1   
    41    15    52 1   
    42    16    28 1   
    43    17    53 1   
    44    18    19 1   
    45    18    28 1   
    46    18    54 1   
    47    18    55 1   
    48    19    29 1   
    49    19    82 1   
    50    19    83 1   
    51    20    56 1   
    52    20    57 1   
    53    20    58 1   
    54    20    83 1   
    55    21    27 1   
    56    21    59 1   
    57    21    60 1   
    58    22    31 1   
    59    22    32 1   
    60    22    85 1   
    61    23    24 1   
    62    23    69 1   
    63    23    70 1   
    64    24    71 1   
    65    24    72 1   
    66    24    73 1   
    67    25    26 1   
    68    25    74 1   
    69    25    75 1   
    70    26    76 1   
    71    26    77 1   
    72    26    78 1   
    73    29    79 1   
    74    30    80 1   
    75    37    82 1   
    76    38    82 1   
    77    42    83 1   
    78    43    83 1   
    79    61    85 1   
    80    62    85 1   
    81    63    81 1   
    82    64    81 1   
    83    65    81 1   
    84    66    84 1   
    85    67    84 1   
    86    68    84 1   
@<TRIPOS>SUBSTRUCTURE
     1 A1L         1 TEMP              0 ****  ****    0 ROOT
