@<TRIPOS>MOLECULE
A1L
   55    54     1     0     0
SMALL
abcg2


@<TRIPOS>ATOM
      1 O5           3.2880     3.6190    -0.0650 o          1 A1L      -0.922833
      2 P            4.2980     3.1170    -1.0970 p5         1 A1L       1.267900
      3 O6           5.7150     2.9470    -0.5520 o          1 A1L      -0.922833
      4 O4           3.7780     1.5270    -1.4770 os         1 A1L      -0.585400
      5 C13          3.6720     0.5980    -0.4430 c3         1 A1L       0.263600
      6 C12          4.0550    -0.8070    -0.9360 c3         1 A1L      -0.084000
      7 C14          3.1100    -1.2440    -2.0580 c3         1 A1L      -0.064600
      8 C15          5.4870    -0.8040    -1.4790 c3         1 A1L      -0.064600
      9 C11          4.0010    -1.8440     0.2220 c3         1 A1L       0.111300
     10 O7           4.9080    -1.5630     1.2560 oh         1 A1L      -0.661000
     11 C10          2.6090    -2.0060     0.8370 c          1 A1L       0.568100
     12 O3           2.2640    -1.3010     1.7790 o          1 A1L      -0.607100
     13 N3           1.8330    -2.9620     0.3100 ns         1 A1L      -0.512900
     14 C9           0.4530    -3.1640     0.6890 c3         1 A1L       0.120000
     15 C8          -0.4860    -2.2090    -0.0450 c3         1 A1L      -0.191400
     16 C7          -1.9350    -2.4370     0.3320 c          1 A1L       0.610100
     17 O2          -2.3970    -3.5640     0.4540 o          1 A1L      -0.642100
     18 N2          -2.6610    -1.3190     0.4940 ns         1 A1L      -0.507900
     19 C6          -4.0720    -1.2980     0.8090 c3         1 A1L       0.105000
     20 C5          -4.7690    -0.1360     0.1170 c3         1 A1L      -0.097400
     21 C4          -6.2480    -0.0740     0.4690 c3         1 A1L      -0.090400
     22 C3          -6.9370     1.0920    -0.2220 c3         1 A1L       0.100000
     23 N1          -8.3440     1.1320     0.1150 ns         1 A1L      -0.508900
     24 C2          -9.1990     2.0040    -0.4410 c          1 A1L       0.596100
     25 O1          -8.8450     2.8290    -1.2740 o          1 A1L      -0.606100
     26 C1         -10.6330     1.9020     0.0180 c3         1 A1L      -0.179100
     27 H3           4.3220     0.8630     0.4020 h1         1 A1L      -0.000800
     28 H4           2.6440     0.5710    -0.0520 h1         1 A1L      -0.000800
     29 H5           3.2410    -0.6090    -2.9330 hc         1 A1L       0.024533
     30 H6           3.3080    -2.2720    -2.3720 hc         1 A1L       0.024533
     31 H7           2.0590    -1.1800    -1.7680 hc         1 A1L       0.024533
     32 H8           6.2040    -0.4670    -0.7300 hc         1 A1L       0.024533
     33 H9           5.7840    -1.8040    -1.8040 hc         1 A1L       0.024533
     34 H10          5.5690    -0.1410    -2.3390 hc         1 A1L       0.024533
     35 H11          4.3080    -2.8060    -0.2060 h1         1 A1L       0.034700
     36 H12          4.4850    -0.9330     1.8520 ho         1 A1L       0.474000
     37 H13          2.1830    -3.4880    -0.4750 hn         1 A1L       0.311500
     38 H14          0.1940    -4.1960     0.4620 h1         1 A1L       0.051700
     39 H15          0.3590    -3.0370     1.7670 h1         1 A1L       0.051700
     40 H16         -0.1830    -1.1770     0.1440 hc         1 A1L       0.082200
     41 H17         -0.3930    -2.3700    -1.1230 hc         1 A1L       0.082200
     42 H18         -2.1880    -0.4320     0.4390 hn         1 A1L       0.331500
     43 H19         -4.5130    -2.2410     0.4900 h1         1 A1L       0.044200
     44 H20         -4.2210    -1.2260     1.8920 h1         1 A1L       0.044200
     45 H21         -4.2870     0.8050     0.4040 hc         1 A1L       0.056700
     46 H22         -4.6470    -0.2340    -0.9650 hc         1 A1L       0.056700
     47 H23         -6.7360    -1.0100     0.1790 hc         1 A1L       0.039200
     48 H24         -6.3640     0.0200     1.5530 hc         1 A1L       0.039200
     49 H25         -6.4530     2.0300     0.0670 h1         1 A1L       0.057700
     50 H26         -6.8200     0.9980    -1.3050 h1         1 A1L       0.057700
     51 H27         -8.6860     0.4850     0.8070 hn         1 A1L       0.307500
     52 H28        -10.9630     2.8690     0.3950 hc         1 A1L       0.053700
     53 H29        -11.2670     1.6530    -0.8340 hc         1 A1L       0.053700
     54 H30        -10.7950     1.1560     0.7940 hc         1 A1L       0.053700
     55 O8           4.2080     3.7720    -2.4700 o          1 A1L      -0.922833
@<TRIPOS>BOND
     1     1     2 1   
     2     2     3 1   
     3     2     4 1   
     4     2    55 1   
     5     4     5 1   
     6     5     6 1   
     7     5    27 1   
     8     5    28 1   
     9     6     7 1   
    10     6     8 1   
    11     6     9 1   
    12     7    29 1   
    13     7    30 1   
    14     7    31 1   
    15     8    32 1   
    16     8    33 1   
    17     8    34 1   
    18     9    10 1   
    19     9    11 1   
    20     9    35 1   
    21    10    36 1   
    22    11    12 2   
    23    11    13 1   
    24    13    14 1   
    25    13    37 1   
    26    14    15 1   
    27    14    38 1   
    28    14    39 1   
    29    15    16 1   
    30    15    40 1   
    31    15    41 1   
    32    16    17 2   
    33    16    18 1   
    34    18    19 1   
    35    18    42 1   
    36    19    20 1   
    37    19    43 1   
    38    19    44 1   
    39    20    21 1   
    40    20    45 1   
    41    20    46 1   
    42    21    22 1   
    43    21    47 1   
    44    21    48 1   
    45    22    23 1   
    46    22    49 1   
    47    22    50 1   
    48    23    24 1   
    49    23    51 1   
    50    24    25 2   
    51    24    26 1   
    52    26    52 1   
    53    26    53 1   
    54    26    54 1   
@<TRIPOS>SUBSTRUCTURE
     1 A1L         1 TEMP              0 ****  ****    0 ROOT
