@<TRIPOS>MOLECULE
A1L
   56    58     1     0     0
SMALL
abcg2


@<TRIPOS>ATOM
      1 C10         72.7040    12.2110    22.3380 c3         1 A1L      -0.130700
      2 C13         77.5370     8.7970    25.0170 cc         1 A1L      -0.231000
      3 C15         73.6490    10.0460    24.3140 ca         1 A1L       0.404900
      4 C17         78.3950     7.9120    24.2550 ca         1 A1L      -0.069800
      5 C20         79.6360     7.8610    24.9460 ca         1 A1L      -0.056200
      6 C21         73.9550    12.7620    23.0330 c3         1 A1L      -0.083100
      7 C22         78.2810     9.2170    26.1030 cd         1 A1L      -0.095100
      8 C24         73.5870    12.4910    19.9550 c3         1 A1L      -0.088100
      9 C26         80.7130     7.0920    24.5120 ca         1 A1L      -0.122000
     10 C28         80.5430     6.3440    23.3590 ca         1 A1L      -0.094000
     11 C11         74.2580    10.2320    25.5710 ca         1 A1L       0.325300
     12 C12         74.3190    11.1730    27.9490 c3         1 A1L      -0.075400
     13 C14         73.0020    11.5300    20.9870 c3         1 A1L      -0.070400
     14 C16         76.1710     9.2240    24.7580 ca         1 A1L       0.410800
     15 C18         71.8000    11.3310    23.1940 c          1 A1L       0.618100
     16 C19         73.5100    11.9430    29.0000 c3         1 A1L       0.138800
     17 C23         75.5460     9.0800    23.5160 ca         1 A1L       0.293900
     18 C25         78.2540     7.1300    23.0980 ca         1 A1L      -0.070000
     19 C27         79.3220     6.3610    22.6640 ca         1 A1L      -0.131000
     20 C29         72.3750    10.3520    30.3290 c2         1 A1L       0.789100
     21 N02         72.3150    10.4590    24.1100 ns         1 A1L      -0.339900
     22 N03         75.4970     9.8080    25.7700 nb         1 A1L      -0.666000
     23 N04         79.5250     8.6660    26.0580 na         1 A1L      -0.225700
     24 N05         74.2890     9.4690    23.3110 nb         1 A1L      -0.649000
     25 N06         72.2960    11.2650    29.4260 n2         1 A1L      -0.741900
     26 N07         73.5220     9.9270    30.9660 nv         1 A1L      -1.042700
     27 N08         71.2420     9.6240    30.6600 nv         1 A1L      -1.042700
     28 O01         70.5770    11.4280    23.0900 o          1 A1L      -0.603100
     29 H1          72.0500    13.0600    22.1210 hc         1 A1L       0.070700
     30 H2          73.7380    13.0630    24.0590 hc         1 A1L       0.038367
     31 H3          74.7740    12.0450    23.0490 hc         1 A1L       0.038367
     32 H4          74.3030    13.6460    22.4980 hc         1 A1L       0.038367
     33 H5          77.9980     9.8850    26.8980 h4         1 A1L       0.229000
     34 H6          73.7240    11.9860    18.9960 hc         1 A1L       0.032367
     35 H7          72.9230    13.3440    19.7940 hc         1 A1L       0.032367
     36 H8          74.5590    12.8770    20.2670 hc         1 A1L       0.032367
     37 H9          81.6440     7.0780    25.0640 ha         1 A1L       0.114000
     38 H10         81.3580     5.7340    22.9910 ha         1 A1L       0.113000
     39 H11         73.1290    11.8680    26.2880 hc         1 A1L       0.065700
     40 H12         72.6250    10.3310    26.9250 hc         1 A1L       0.065700
     41 H13         74.6610    10.2250    28.3660 hc         1 A1L       0.049700
     42 H14         75.2160    11.7490    27.7070 hc         1 A1L       0.049700
     43 H15         72.0700    11.1090    20.6000 hc         1 A1L       0.056200
     44 H16         73.6830    10.6940    21.1540 hc         1 A1L       0.056200
     45 H17         74.1740    12.1860    29.8430 h1         1 A1L       0.030200
     46 H18         73.2140    12.9050    28.5700 h1         1 A1L       0.030200
     47 H19         76.0640     8.6550    22.6690 h4         1 A1L       0.034100
     48 H20         77.3260     7.1060    22.5440 ha         1 A1L       0.115000
     49 H21         79.2130     5.7580    21.7710 ha         1 A1L       0.114000
     50 H22         71.6150    10.0500    24.7180 hn         1 A1L       0.164000
     51 H23         80.2550     8.8290    26.7330 hn         1 A1L       0.353000
     52 H25         73.4110     9.4430    31.8430 hn         1 A1L       0.459500
     53 H26         74.3090    10.5560    30.9500 hn         1 A1L       0.459500
     54 H27         71.1920     9.2830    31.6100 hn         1 A1L       0.459500
     55 H24         70.3870    10.0680    30.3580 hn         1 A1L       0.459500
     56 C09         73.5140    10.9210    26.6820 c3         1 A1L      -0.118700
@<TRIPOS>BOND
     1     1     6 1   
     2     1    13 1   
     3     1    15 1   
     4     1    29 1   
     5     2     4 1   
     6     2     7 2   
     7     2    14 1   
     8     3    11 ar  
     9     3    21 1   
    10     3    24 ar  
    11     4     5 ar  
    12     4    18 ar  
    13     5     9 ar  
    14     5    23 1   
    15     6    30 1   
    16     6    31 1   
    17     6    32 1   
    18     7    23 1   
    19     7    33 1   
    20     8    13 1   
    21     8    34 1   
    22     8    35 1   
    23     8    36 1   
    24     9    10 ar  
    25     9    37 1   
    26    10    19 ar  
    27    10    38 1   
    28    11    22 ar  
    29    11    56 1   
    30    12    16 1   
    31    12    41 1   
    32    12    42 1   
    33    12    56 1   
    34    13    43 1   
    35    13    44 1   
    36    14    17 ar  
    37    14    22 ar  
    38    15    21 1   
    39    15    28 2   
    40    16    25 1   
    41    16    45 1   
    42    16    46 1   
    43    17    24 ar  
    44    17    47 1   
    45    18    19 ar  
    46    18    48 1   
    47    19    49 1   
    48    20    25 2   
    49    20    26 1   
    50    20    27 1   
    51    21    50 1   
    52    23    51 1   
    53    26    52 1   
    54    26    53 1   
    55    27    54 1   
    56    27    55 1   
    57    39    56 1   
    58    40    56 1   
@<TRIPOS>SUBSTRUCTURE
     1 A1L         1 TEMP              0 ****  ****    0 ROOT
