@<TRIPOS>MOLECULE
A1L
  151   152     1     0     0
SMALL
abcg2


@<TRIPOS>ATOM
      1 C4         136.6040   129.6990   156.2190 c3         1 A1L      -0.040200
      2 C5         142.8180   146.3190   155.3630 c3         1 A1L      -0.035200
      3 C6         139.6100   136.3400   157.4430 c3         1 A1L      -0.036200
      4 C7         141.0900   140.9180   157.5090 c3         1 A1L      -0.036200
      5 C8         137.0820   132.5880   155.4440 c3         1 A1L      -0.038200
      6 C10        137.2360   128.8380   155.1130 c3         1 A1L      -0.036200
      7 C13        138.5180   134.0850   156.9440 c2         1 A1L      -0.111400
      8 C11        139.0290   148.1890   153.1670 c3         1 A1L      -0.039200
      9 C1         139.6370   137.4650   156.3950 c3         1 A1L      -0.037200
     10 C2         137.2410   133.3000   156.7960 c3         1 A1L      -0.038200
     11 C9         143.0980   145.2660   156.4470 c3         1 A1L      -0.035200
     12 C12        140.6560   138.5310   156.7050 c2         1 A1L      -0.114400
     13 C14        139.2120   146.8950   153.9770 c3         1 A1L      -0.033200
     14 C3         140.7240   142.1710   156.7000 c3         1 A1L      -0.037200
     15 C15        140.5950   127.2250   156.2730 c3         1 A1L      -0.038200
     16 C16        141.4810   143.4060   157.1130 c2         1 A1L      -0.116400
     17 C17        135.5260   130.6120   155.6960 c2         1 A1L      -0.114400
     18 C18        141.3770   146.7500   155.3040 c2         1 A1L      -0.110400
     19 C19        141.2590   150.5950   149.6950 cc         1 A1L      -0.130400
     20 C20        141.3420   126.4540   155.1770 c3         1 A1L      -0.041200
     21 C21        139.6240   128.2240   155.7020 c2         1 A1L      -0.111400
     22 C22        141.4990   149.2520   150.3300 c3         1 A1L       0.003000
     23 C23        139.7380   148.1840   151.8380 c2         1 A1L      -0.087400
     24 C24        138.4740   135.3920   157.2190 c2         1 A1L      -0.221200
     25 C25        140.2580   139.7390   157.1130 c2         1 A1L      -0.220200
     26 C26        135.7620   131.8780   155.3440 c2         1 A1L      -0.221200
     27 C27        142.2850   144.0260   156.2440 c2         1 A1L      -0.212200
     28 C28        140.6510   146.5440   154.2020 c2         1 A1L      -0.216200
     29 C29        138.3170   127.9520   155.6530 c2         1 A1L      -0.224200
     30 C30        144.3260   124.0870   156.0190 c3         1 A1L      -0.035200
     31 C31        141.9510   151.7080   150.0170 cd         1 A1L      -0.132400
     32 C32        140.6740   149.1000   151.5780 c2         1 A1L      -0.232200
     33 C33        143.5760   125.2480   155.4090 c2         1 A1L      -0.109400
     34 C34        142.2930   125.4400   155.7260 c2         1 A1L      -0.221200
     35 C35        144.0180   122.7510   155.3230 c3         1 A1L      -0.035200
     36 C36        139.8370   151.9350   148.0430 ca         1 A1L      -0.133600
     37 C37        140.1470   150.6490   148.7100 c          1 A1L       0.574900
     38 C38        140.5720   153.0780   148.3520 ca         1 A1L      -0.135600
     39 C39        141.6610   153.0070   149.3520 c          1 A1L       0.571900
     40 C40        142.0890   138.1100   156.5510 c3         1 A1L      -0.053900
     41 C41        139.7820   133.2890   156.7910 c3         1 A1L      -0.054900
     42 C42        141.2490   143.8560   158.5260 c3         1 A1L      -0.053900
     43 C43        134.1630   129.9990   155.5670 c3         1 A1L      -0.053900
     44 C44        140.8500   147.3960   156.5510 c3         1 A1L      -0.053900
     45 C45        140.2390   129.4950   155.1940 c3         1 A1L      -0.056900
     46 C46        139.3190   147.0980   150.8940 c3         1 A1L      -0.058900
     47 C47        144.4500   122.7010   153.8910 c2         1 A1L      -0.217200
     48 C48        143.6920   122.7280   152.7910 c2         1 A1L      -0.110400
     49 C49        142.1910   122.8340   152.7980 c3         1 A1L      -0.037200
     50 C50        144.3550   126.0840   154.4390 c3         1 A1L      -0.052900
     51 C51        143.0450   151.7590   151.0330 c3         1 A1L      -0.055900
     52 C52        138.8150   152.0020   147.1030 ca         1 A1L      -0.066000
     53 C53        140.2820   154.2830   147.7220 ca         1 A1L      -0.065000
     54 C54        141.6630   124.0520   152.0270 c3         1 A1L      -0.035200
     55 C55        138.5300   153.2050   146.4760 ca         1 A1L      -0.098000
     56 C56        139.2630   154.3450   146.7860 ca         1 A1L      -0.099000
     57 C57        144.3260   122.6450   151.4310 c3         1 A1L      -0.055900
     58 C58        140.1750   124.1920   152.1710 c2         1 A1L      -0.222200
     59 C59        139.4530   125.3150   152.1310 c2         1 A1L      -0.117400
     60 C60        140.0240   126.6820   151.8970 c3         1 A1L      -0.057400
     61 C61        137.9630   125.2870   152.3070 c3         1 A1L      -0.057400
     62 O1         139.5010   149.6540   148.4530 o          1 A1L      -0.506100
     63 O2         142.3170   153.9900   149.6280 o          1 A1L      -0.509100
     64 H1         137.3960   130.2680   156.7110 hc         1 A1L       0.046700
     65 H2         136.1820   129.0420   156.9850 hc         1 A1L       0.046700
     66 H3         143.1220   145.9200   154.3910 hc         1 A1L       0.042700
     67 H4         143.4540   147.1890   155.5590 hc         1 A1L       0.042700
     68 H5         139.4930   136.8010   158.4300 hc         1 A1L       0.046200
     69 H6         140.5690   135.8200   157.4580 hc         1 A1L       0.046200
     70 H7         140.9240   141.1170   158.5730 hc         1 A1L       0.046200
     71 H8         142.1580   140.7190   157.4010 hc         1 A1L       0.046200
     72 H9         137.9060   131.8880   155.2940 hc         1 A1L       0.045200
     73 H10        137.1610   133.3270   154.6420 hc         1 A1L       0.045200
     74 H11        136.4620   128.2220   154.6450 hc         1 A1L       0.044700
     75 H12        137.6180   129.4940   154.3290 hc         1 A1L       0.044700
     76 H13        139.3780   149.0330   153.7680 hc         1 A1L       0.045700
     77 H14        137.9570   148.3390   153.0000 hc         1 A1L       0.045700
     78 H15        138.6420   137.9140   156.3330 hc         1 A1L       0.045200
     79 H16        139.8450   137.0240   155.4140 hc         1 A1L       0.045200
     80 H17        136.3840   133.9600   156.9570 hc         1 A1L       0.045700
     81 H18        137.1970   132.5390   157.5840 hc         1 A1L       0.045700
     82 H19        144.1630   145.0140   156.3990 hc         1 A1L       0.044200
     83 H20        142.9390   145.6950   157.4370 hc         1 A1L       0.044200
     84 H21        138.6750   147.0030   154.9200 hc         1 A1L       0.044200
     85 H22        138.7250   146.0690   153.4510 hc         1 A1L       0.044200
     86 H23        140.8910   141.9710   155.6380 hc         1 A1L       0.045200
     87 H24        139.6490   142.3540   156.8160 hc         1 A1L       0.045200
     88 H25        141.3230   127.7370   156.9110 hc         1 A1L       0.044200
     89 H26        140.0680   126.5110   156.9110 hc         1 A1L       0.044200
     90 H27        140.5960   125.9390   154.5630 hc         1 A1L       0.050200
     91 H28        141.8510   127.1520   154.5100 hc         1 A1L       0.050200
     92 H29        141.2870   148.4630   149.6120 hc         1 A1L       0.063200
     93 H30        142.5560   149.1510   150.5830 hc         1 A1L       0.063200
     94 H31        137.4890   135.8480   157.3000 ha         1 A1L       0.164000
     95 H32        139.1840   139.9090   157.1800 ha         1 A1L       0.163000
     96 H33        134.9290   132.4730   154.9770 ha         1 A1L       0.167000
     97 H34        142.3610   143.6000   155.2450 ha         1 A1L       0.165000
     98 H35        141.1530   146.0790   153.3570 ha         1 A1L       0.166000
     99 H36        137.9830   127.0110   156.0840 ha         1 A1L       0.167000
    100 H37        144.0640   123.9860   157.0750 hc         1 A1L       0.043200
    101 H38        145.4040   124.2740   155.9840 hc         1 A1L       0.043200
    102 H39        140.8900   149.8340   152.3500 ha         1 A1L       0.167000
    103 H40        141.8550   124.7580   156.4530 ha         1 A1L       0.162000
    104 H41        142.9510   122.5470   155.4290 hc         1 A1L       0.043200
    105 H42        144.5370   121.9570   155.8700 hc         1 A1L       0.043200
    106 H43        142.7960   138.9200   156.7140 hc         1 A1L       0.039033
    107 H44        142.3430   137.3100   157.2510 hc         1 A1L       0.039033
    108 H45        142.2630   137.7090   155.5490 hc         1 A1L       0.039033
    109 H46        140.6750   133.8410   157.0750 hc         1 A1L       0.038700
    110 H47        139.7420   132.3830   157.4020 hc         1 A1L       0.038700
    111 H48        139.9190   132.9570   155.7590 hc         1 A1L       0.038700
    112 H49        141.7020   143.1680   159.2430 hc         1 A1L       0.037367
    113 H50        141.6500   144.8460   158.7330 hc         1 A1L       0.037367
    114 H51        140.1790   143.8760   158.7510 hc         1 A1L       0.037367
    115 H52        133.7870   129.6750   156.5410 hc         1 A1L       0.038700
    116 H53        133.4390   130.6920   155.1390 hc         1 A1L       0.038700
    117 H54        134.1880   129.1070   154.9350 hc         1 A1L       0.038700
    118 H55        139.8710   147.8520   156.4170 hc         1 A1L       0.037700
    119 H56        140.7660   146.6730   157.3670 hc         1 A1L       0.037700
    120 H57        141.5330   148.1750   156.8980 hc         1 A1L       0.037700
    121 H58        141.0470   129.2930   154.4870 hc         1 A1L       0.038700
    122 H59        139.5270   130.1540   154.6970 hc         1 A1L       0.038700
    123 H60        140.6830   130.0570   156.0200 hc         1 A1L       0.038700
    124 H61        138.2300   147.0530   150.8250 hc         1 A1L       0.043367
    125 H62        139.7110   147.2260   149.8890 hc         1 A1L       0.043367
    126 H63        139.6480   146.1190   151.2540 hc         1 A1L       0.043367
    127 H64        145.5270   122.6380   153.7490 ha         1 A1L       0.162000
    128 H65        141.8110   122.8760   153.8190 hc         1 A1L       0.045700
    129 H66        141.7660   121.9300   152.3450 hc         1 A1L       0.045700
    130 H67        144.7580   125.4620   153.6370 hc         1 A1L       0.039033
    131 H68        143.7700   126.8790   153.9820 hc         1 A1L       0.039033
    132 H69        145.2130   126.5430   154.9370 hc         1 A1L       0.039033
    133 H70        143.2070   150.8040   151.5230 hc         1 A1L       0.055367
    134 H71        143.9860   152.0700   150.5760 hc         1 A1L       0.055367
    135 H72        142.8140   152.4930   151.8070 hc         1 A1L       0.055367
    136 H73        138.2430   151.1170   146.8600 ha         1 A1L       0.138000
    137 H74        140.8520   155.1700   147.9640 ha         1 A1L       0.138000
    138 H75        141.9230   123.9490   150.9680 hc         1 A1L       0.047200
    139 H76        142.1770   124.9510   152.3760 hc         1 A1L       0.047200
    140 H77        137.7350   153.2560   145.7450 ha         1 A1L       0.121000
    141 H78        139.0380   155.2830   146.2960 ha         1 A1L       0.121000
    142 H79        145.3960   122.4520   151.4960 hc         1 A1L       0.037700
    143 H80        143.8750   121.8470   150.8360 hc         1 A1L       0.037700
    144 H81        144.1900   123.5680   150.8620 hc         1 A1L       0.037700
    145 H82        139.6350   123.2580   152.3190 ha         1 A1L       0.164000
    146 H83        141.1120   126.7020   151.8810 hc         1 A1L       0.038700
    147 H84        139.6710   127.0830   150.9430 hc         1 A1L       0.038700
    148 H85        139.6880   127.3790   152.6700 hc         1 A1L       0.038700
    149 H86        137.5840   124.2760   152.4530 hc         1 A1L       0.038700
    150 H87        137.6630   125.8890   153.1710 hc         1 A1L       0.038700
    151 H88        137.4540   125.7180   151.4410 hc         1 A1L       0.038700
@<TRIPOS>BOND
     1     1     6 1   
     2     1    17 1   
     3     1    64 1   
     4     1    65 1   
     5     2    11 1   
     6     2    18 1   
     7     2    66 1   
     8     2    67 1   
     9     3     9 1   
    10     3    24 1   
    11     3    68 1   
    12     3    69 1   
    13     4    14 1   
    14     4    25 1   
    15     4    70 1   
    16     4    71 1   
    17     5    10 1   
    18     5    26 1   
    19     5    72 1   
    20     5    73 1   
    21     6    29 1   
    22     6    74 1   
    23     6    75 1   
    24     7    10 1   
    25     7    24 2   
    26     7    41 1   
    27     8    13 1   
    28     8    23 1   
    29     8    76 1   
    30     8    77 1   
    31     9    12 1   
    32     9    78 1   
    33     9    79 1   
    34    10    80 1   
    35    10    81 1   
    36    11    27 1   
    37    11    82 1   
    38    11    83 1   
    39    12    25 2   
    40    12    40 1   
    41    13    28 1   
    42    13    84 1   
    43    13    85 1   
    44    14    16 1   
    45    14    86 1   
    46    14    87 1   
    47    15    20 1   
    48    15    21 1   
    49    15    88 1   
    50    15    89 1   
    51    16    27 2   
    52    16    42 1   
    53    17    26 2   
    54    17    43 1   
    55    18    28 2   
    56    18    44 1   
    57    19    22 1   
    58    19    31 2   
    59    19    37 1   
    60    20    34 1   
    61    20    90 1   
    62    20    91 1   
    63    21    29 2   
    64    21    45 1   
    65    22    32 1   
    66    22    92 1   
    67    22    93 1   
    68    23    32 2   
    69    23    46 1   
    70    24    94 1   
    71    25    95 1   
    72    26    96 1   
    73    27    97 1   
    74    28    98 1   
    75    29    99 1   
    76    30    33 1   
    77    30    35 1   
    78    30   100 1   
    79    30   101 1   
    80    31    39 1   
    81    31    51 1   
    82    32   102 1   
    83    33    34 2   
    84    33    50 1   
    85    34   103 1   
    86    35    47 1   
    87    35   104 1   
    88    35   105 1   
    89    36    37 1   
    90    36    38 ar  
    91    36    52 ar  
    92    37    62 2   
    93    38    39 1   
    94    38    53 ar  
    95    39    63 2   
    96    40   106 1   
    97    40   107 1   
    98    40   108 1   
    99    41   109 1   
   100    41   110 1   
   101    41   111 1   
   102    42   112 1   
   103    42   113 1   
   104    42   114 1   
   105    43   115 1   
   106    43   116 1   
   107    43   117 1   
   108    44   118 1   
   109    44   119 1   
   110    44   120 1   
   111    45   121 1   
   112    45   122 1   
   113    45   123 1   
   114    46   124 1   
   115    46   125 1   
   116    46   126 1   
   117    47    48 2   
   118    47   127 1   
   119    48    49 1   
   120    48    57 1   
   121    49    54 1   
   122    49   128 1   
   123    49   129 1   
   124    50   130 1   
   125    50   131 1   
   126    50   132 1   
   127    51   133 1   
   128    51   134 1   
   129    51   135 1   
   130    52    55 ar  
   131    52   136 1   
   132    53    56 ar  
   133    53   137 1   
   134    54    58 1   
   135    54   138 1   
   136    54   139 1   
   137    55    56 ar  
   138    55   140 1   
   139    56   141 1   
   140    57   142 1   
   141    57   143 1   
   142    57   144 1   
   143    58    59 2   
   144    58   145 1   
   145    59    60 1   
   146    59    61 1   
   147    60   146 1   
   148    60   147 1   
   149    60   148 1   
   150    61   149 1   
   151    61   150 1   
   152    61   151 1   
@<TRIPOS>SUBSTRUCTURE
     1 A1L         1 TEMP              0 ****  ****    0 ROOT
