@<TRIPOS>MOLECULE
A1L
   95    94     1     0     0
SMALL
abcg2


@<TRIPOS>ATOM
      1 C1         144.6660   165.8710   175.1720 c3         1 A1L       0.161600
      2 C2         144.5540   165.8350   173.6630 c3         1 A1L       0.142300
      3 C3         144.5560   164.4140   173.1190 c3         1 A1L       0.151600
      4 C11        145.4490   164.6320   170.9250 c          1 A1L       0.602100
      5 C12        145.0320   164.7460   169.4860 c3         1 A1L      -0.140400
      6 C13        146.1750   164.7750   168.4860 c3         1 A1L      -0.065400
      7 C14        145.6560   165.0230   167.0750 c3         1 A1L      -0.077400
      8 O3P        143.6050   165.1520   175.7470 oh         1 A1L      -0.651000
      9 O2         143.3260   166.4740   173.2860 os         1 A1L      -0.431100
     10 C31        143.3040   167.2630   172.2140 c          1 A1L       0.598100
     11 O31        144.2700   167.5030   171.5340 o          1 A1L      -0.499000
     12 C32        141.9350   167.8330   171.9460 c3         1 A1L      -0.134400
     13 C33        141.4320   167.4620   170.5490 c3         1 A1L      -0.068400
     14 C34        141.0880   165.9830   170.4170 c3         1 A1L      -0.081400
     15 C35        140.5170   165.5980   169.0550 c3         1 A1L      -0.072400
     16 C36        141.5150   165.7080   167.9070 c3         1 A1L      -0.078400
     17 C37        140.9690   165.1670   166.5930 c3         1 A1L      -0.074400
     18 C38        141.9810   165.2570   165.4490 c3         1 A1L      -0.044200
     19 C39        141.4420   164.6790   164.1790 c2         1 A1L      -0.217200
     20 C40        141.8890   163.6110   163.5190 c2         1 A1L      -0.215200
     21 C41        143.0770   162.7610   163.8490 c3         1 A1L      -0.044200
     22 C42        144.1020   162.7500   162.7150 c3         1 A1L      -0.074400
     23 C43        145.3460   161.9340   163.0360 c3         1 A1L      -0.076400
     24 C44        146.3620   161.9340   161.9020 c3         1 A1L      -0.078400
     25 C45        147.6340   161.1660   162.2300 c3         1 A1L      -0.087100
     26 O3         144.3910   164.3950   171.7050 os         1 A1L      -0.451100
     27 O11        146.5720   164.7460   171.3450 o          1 A1L      -0.486000
     28 C15        146.7500   165.0430   166.0180 c3         1 A1L      -0.073400
     29 C16        146.2370   165.4610   164.6460 c3         1 A1L      -0.078400
     30 C17        147.3120   165.4260   163.5690 c3         1 A1L      -0.072400
     31 C18        146.8190   165.9290   162.2120 c3         1 A1L      -0.042200
     32 C19        147.8890   165.8800   161.1680 c2         1 A1L      -0.217200
     33 C20        147.8390   165.1570   160.0520 c2         1 A1L      -0.220200
     34 C21        148.9370   165.0560   159.0410 c3         1 A1L      -0.041200
     35 C22        149.5110   163.6410   158.9530 c3         1 A1L      -0.073400
     36 C23        150.5990   163.5050   157.8960 c3         1 A1L      -0.075400
     37 C24        151.1750   162.0980   157.8230 c3         1 A1L      -0.088100
     38 H1         145.6440   165.4490   175.4340 h1         1 A1L       0.032700
     39 H2         144.6770   166.9200   175.4930 h1         1 A1L       0.032700
     40 H3         145.4050   166.3910   173.2650 h1         1 A1L       0.086700
     41 H4         143.7140   163.8480   173.5130 h1         1 A1L       0.077200
     42 H5         145.4780   163.9120   173.4210 h1         1 A1L       0.077200
     43 H6         144.4430   165.6660   169.4050 hc         1 A1L       0.074700
     44 H7         144.3340   163.9360   169.2550 hc         1 A1L       0.074700
     45 H8         146.7270   163.8310   168.5190 hc         1 A1L       0.054200
     46 H9         146.8860   165.5610   168.7500 hc         1 A1L       0.054200
     47 H10        145.1140   165.9750   167.0590 hc         1 A1L       0.037200
     48 H11        144.9180   164.2550   166.8160 hc         1 A1L       0.037200
     49 H12        143.7280   165.1430   176.7010 ho         1 A1L       0.446000
     50 H13        142.0190   168.9200   172.0260 hc         1 A1L       0.071700
     51 H14        141.2230   167.5050   172.7040 hc         1 A1L       0.071700
     52 H15        142.1770   167.7560   169.8070 hc         1 A1L       0.050700
     53 H16        140.5390   168.0570   170.3390 hc         1 A1L       0.050700
     54 H17        140.3640   165.7240   171.1950 hc         1 A1L       0.047200
     55 H18        141.9740   165.3700   170.6130 hc         1 A1L       0.047200
     56 H19        139.6380   166.2140   168.8360 hc         1 A1L       0.038700
     57 H20        140.1570   164.5660   169.1070 hc         1 A1L       0.038700
     58 H21        142.4220   165.1540   168.1700 hc         1 A1L       0.037700
     59 H22        141.8250   166.7490   167.7680 hc         1 A1L       0.037700
     60 H23        140.0570   165.7080   166.3180 hc         1 A1L       0.039700
     61 H24        140.6740   164.1220   166.7270 hc         1 A1L       0.039700
     62 H25        142.9050   164.7580   165.7460 hc         1 A1L       0.044200
     63 H26        142.2390   166.3100   165.2880 hc         1 A1L       0.044200
     64 H27        140.5660   165.1850   163.7790 ha         1 A1L       0.165000
     65 H28        141.3560   163.3180   162.6180 ha         1 A1L       0.165000
     66 H29        142.7460   161.7320   164.0330 hc         1 A1L       0.044200
     67 H30        143.5600   163.0940   164.7710 hc         1 A1L       0.044200
     68 H31        144.3960   163.7800   162.4880 hc         1 A1L       0.038700
     69 H32        143.6330   162.3640   161.8040 hc         1 A1L       0.038700
     70 H33        145.0590   160.9030   163.2730 hc         1 A1L       0.037700
     71 H34        145.8170   162.3330   163.9420 hc         1 A1L       0.037700
     72 H35        146.6220   162.9680   161.6540 hc         1 A1L       0.038700
     73 H36        145.9000   161.5170   161.0010 hc         1 A1L       0.038700
     74 H37        148.3420   161.1970   161.4020 hc         1 A1L       0.031367
     75 H38        148.1320   161.5880   163.1050 hc         1 A1L       0.031367
     76 H39        147.4220   160.1170   162.4470 hc         1 A1L       0.031367
     77 H40        147.2110   164.0520   165.9520 hc         1 A1L       0.040200
     78 H41        147.5470   165.7290   166.3280 hc         1 A1L       0.040200
     79 H42        145.8190   166.4720   164.7110 hc         1 A1L       0.039700
     80 H43        145.4060   164.8100   164.3530 hc         1 A1L       0.039700
     81 H44        147.6880   164.4030   163.4610 hc         1 A1L       0.040700
     82 H45        148.1680   166.0310   163.8880 hc         1 A1L       0.040700
     83 H46        146.4640   166.9590   162.3300 hc         1 A1L       0.043700
     84 H47        145.9550   165.3390   161.8890 hc         1 A1L       0.043700
     85 H48        148.7810   166.4700   161.3710 ha         1 A1L       0.165000
     86 H49        146.9510   164.5610   159.8530 ha         1 A1L       0.165000
     87 H50        149.7360   165.7620   159.2860 hc         1 A1L       0.042700
     88 H51        148.5570   165.3430   158.0540 hc         1 A1L       0.042700
     89 H52        148.7030   162.9330   158.7360 hc         1 A1L       0.039700
     90 H53        149.9120   163.3550   159.9310 hc         1 A1L       0.039700
     91 H54        151.4000   164.2190   158.1090 hc         1 A1L       0.036700
     92 H55        150.1920   163.7880   156.9210 hc         1 A1L       0.036700
     93 H56        151.9500   162.0210   157.0590 hc         1 A1L       0.031700
     94 H57        151.6200   161.8040   158.7750 hc         1 A1L       0.031700
     95 H58        150.4010   161.3670   157.5820 hc         1 A1L       0.031700
@<TRIPOS>BOND
     1     1     2 1   
     2     1     8 1   
     3     1    38 1   
     4     1    39 1   
     5     2     3 1   
     6     2     9 1   
     7     2    40 1   
     8     3    26 1   
     9     3    41 1   
    10     3    42 1   
    11     4     5 1   
    12     4    26 1   
    13     4    27 2   
    14     5     6 1   
    15     5    43 1   
    16     5    44 1   
    17     6     7 1   
    18     6    45 1   
    19     6    46 1   
    20     7    28 1   
    21     7    47 1   
    22     7    48 1   
    23     8    49 1   
    24     9    10 1   
    25    10    11 2   
    26    10    12 1   
    27    12    13 1   
    28    12    50 1   
    29    12    51 1   
    30    13    14 1   
    31    13    52 1   
    32    13    53 1   
    33    14    15 1   
    34    14    54 1   
    35    14    55 1   
    36    15    16 1   
    37    15    56 1   
    38    15    57 1   
    39    16    17 1   
    40    16    58 1   
    41    16    59 1   
    42    17    18 1   
    43    17    60 1   
    44    17    61 1   
    45    18    19 1   
    46    18    62 1   
    47    18    63 1   
    48    19    20 2   
    49    19    64 1   
    50    20    21 1   
    51    20    65 1   
    52    21    22 1   
    53    21    66 1   
    54    21    67 1   
    55    22    23 1   
    56    22    68 1   
    57    22    69 1   
    58    23    24 1   
    59    23    70 1   
    60    23    71 1   
    61    24    25 1   
    62    24    72 1   
    63    24    73 1   
    64    25    74 1   
    65    25    75 1   
    66    25    76 1   
    67    28    29 1   
    68    28    77 1   
    69    28    78 1   
    70    29    30 1   
    71    29    79 1   
    72    29    80 1   
    73    30    31 1   
    74    30    81 1   
    75    30    82 1   
    76    31    32 1   
    77    31    83 1   
    78    31    84 1   
    79    32    33 2   
    80    32    85 1   
    81    33    34 1   
    82    33    86 1   
    83    34    35 1   
    84    34    87 1   
    85    34    88 1   
    86    35    36 1   
    87    35    89 1   
    88    35    90 1   
    89    36    37 1   
    90    36    91 1   
    91    36    92 1   
    92    37    93 1   
    93    37    94 1   
    94    37    95 1   
@<TRIPOS>SUBSTRUCTURE
     1 A1L         1 TEMP              0 ****  ****    0 ROOT
