@<TRIPOS>MOLECULE
A1L
   51    53     1     0     0
SMALL
abcg2


@<TRIPOS>ATOM
      1 N1           8.6840    14.1650     3.8790 n3         1 A1L      -0.727500
      2 C4          14.4680    12.5820     3.2760 ca         1 A1L      -0.152000
      3 C5          13.5220    13.4890     3.7290 ca         1 A1L      -0.073600
      4 C6          12.6170    14.1670     2.7470 c          1 A1L       0.622700
      5 C7          10.3090    14.7010     2.1510 c6         1 A1L       0.101000
      6 C8          10.7080    12.8630     3.6630 c6         1 A1L       0.101000
      7 C10          9.6790    13.4020     4.6370 c6         1 A1L       0.171800
      8 C13          5.7050    16.1280     3.1150 ca         1 A1L       0.019500
      9 C15          4.8610    16.3410     2.0420 ca         1 A1L      -0.177000
     10 N           11.2950    13.9380     2.8890 n          1 A1L      -0.413800
     11 C           13.4510    13.8540     5.0680 ca         1 A1L      -0.152000
     12 C1          14.3380    13.2880     5.9760 ca         1 A1L       0.169100
     13 C11          6.1820    14.8480     3.3610 ca         1 A1L      -0.304500
     14 C12          5.7870    13.7800     2.5660 ca         1 A1L       0.019500
     15 C14          4.9240    13.9940     1.5090 ca         1 A1L      -0.177000
     16 C16          4.4760    15.2840     1.2140 ca         1 A1L       0.043000
     17 C18          4.5800    14.0100    -1.5230 c3         1 A1L      -0.178100
     18 C2          15.2720    12.3480     5.5400 ca         1 A1L      -0.098900
     19 C3          15.3380    11.9980     4.1910 ca         1 A1L       0.169100
     20 C9           9.2800    15.2640     3.1180 c6         1 A1L       0.171800
     21 N2           3.6140    15.5580     0.1550 ns         1 A1L      -0.168000
     22 O1          16.1630    11.8050     6.4300 oh         1 A1L      -0.561100
     23 O2          16.2360    11.1020     3.7500 oh         1 A1L      -0.522600
     24 O3          13.0800    14.9150     1.8990 o          1 A1L      -0.577100
     25 O6           2.7090    15.4360    -1.8830 o          1 A1L      -0.571100
     26 S            7.2880    14.5460     4.7010 sy         1 A1L       1.145600
     27 H1          14.5250    12.3080     2.2310 ha         1 A1L       0.143000
     28 H2           9.8160    14.0600     1.4140 h1         1 A1L       0.065200
     29 H3          10.7910    15.5180     1.6210 h1         1 A1L       0.065200
     30 H4          10.2230    12.1590     2.9790 h1         1 A1L       0.065200
     31 H5          11.4700    12.3160     4.2120 h1         1 A1L       0.065200
     32 H6          10.1710    14.0240     5.3940 h1         1 A1L       0.064950
     33 H7           9.1980    12.5640     5.1370 h1         1 A1L       0.064950
     34 H8           6.0010    16.9620     3.7360 ha         1 A1L       0.139500
     35 H9           4.5060    17.3420     1.8330 ha         1 A1L       0.125500
     36 H10         12.7170    14.5720     5.4130 ha         1 A1L       0.143000
     37 H11         14.9810    13.2420     7.7680 ho         1 A1L       0.480000
     38 H12          6.1320    12.7760     2.7710 ha         1 A1L       0.139500
     39 H13          4.5880    13.1440     0.9340 ha         1 A1L       0.125500
     40 H14          4.6630    14.0240    -2.6070 hc         1 A1L       0.068033
     41 H15          5.5650    14.1790    -1.0900 hc         1 A1L       0.068033
     42 H16          4.2530    13.0110    -1.2320 hc         1 A1L       0.068033
     43 H17          9.7560    15.9960     3.7790 h1         1 A1L       0.064950
     44 H18          8.5100    15.7770     2.5400 h1         1 A1L       0.064950
     45 H19          2.9920    16.3450     0.2910 hn         1 A1L       0.160000
     46 H20         15.7860    11.0120     6.8360 ho         1 A1L       0.453000
     47 H21         16.8100    10.8260     4.4760 ho         1 A1L       0.480000
     48 O           14.2710    13.6610     7.2630 oh         1 A1L      -0.522600
     49 O4           7.4290    15.7780     5.4670 o          1 A1L      -0.541500
     50 C17          3.5630    15.0390    -1.1130 c          1 A1L       0.613100
     51 O5           6.8850    13.3380     5.4050 o          1 A1L      -0.541500
@<TRIPOS>BOND
     1     1     7 1   
     2     1    20 1   
     3     1    26 1   
     4     2     3 ar  
     5     2    19 ar  
     6     2    27 1   
     7     3     4 1   
     8     3    11 ar  
     9     4    10 1   
    10     4    24 2   
    11     5    10 1   
    12     5    20 1   
    13     5    28 1   
    14     5    29 1   
    15     6     7 1   
    16     6    10 1   
    17     6    30 1   
    18     6    31 1   
    19     7    32 1   
    20     7    33 1   
    21     8     9 ar  
    22     8    13 ar  
    23     8    34 1   
    24     9    16 ar  
    25     9    35 1   
    26    11    12 ar  
    27    11    36 1   
    28    12    18 ar  
    29    12    48 1   
    30    13    14 ar  
    31    13    26 1   
    32    14    15 ar  
    33    14    38 1   
    34    15    16 ar  
    35    15    39 1   
    36    16    21 1   
    37    17    40 1   
    38    17    41 1   
    39    17    42 1   
    40    17    50 1   
    41    18    19 ar  
    42    18    22 1   
    43    19    23 1   
    44    20    43 1   
    45    20    44 1   
    46    21    45 1   
    47    21    50 1   
    48    22    46 1   
    49    23    47 1   
    50    25    50 2   
    51    26    49 2   
    52    26    51 2   
    53    37    48 1   
@<TRIPOS>SUBSTRUCTURE
     1 A1L         1 TEMP              0 ****  ****    0 ROOT
