@<TRIPOS>MOLECULE
A1L
   36    37     1     0     0
SMALL
abcg2


@<TRIPOS>ATOM
      1 C1           0.7370     9.9060     3.2650 c5         1 A1L       0.298700
      2 C2           3.1800     9.8890     3.7740 cs         1 A1L       0.578800
      3 C7           0.0090     9.3500     4.5020 c5         1 A1L       0.087300
      4 C3          -0.8800    10.5450     4.8640 c5         1 A1L       0.137300
      5 C4           4.3180    11.8610     4.2170 cc         1 A1L       0.746500
      6 C8          -1.2930    11.0500     3.4860 c5         1 A1L       0.146300
      7 C5           3.1320    12.6250     4.0800 cc         1 A1L      -0.440600
      8 C9          -1.7090    12.5070     3.4100 c3         1 A1L       0.249600
      9 C6           2.0070    11.9470     3.7720 cd         1 A1L       0.034600
     10 N1           2.0040    10.6010     3.6180 n          1 A1L      -0.245000
     11 N3           4.3040    10.5420     4.0630 nd         1 A1L      -0.739100
     12 N4           5.4790    12.4430     4.5040 nv         1 A1L      -1.041200
     13 O2          -0.8300     8.2890     4.1540 os         1 A1L      -0.438000
     14 O3          -2.0080    10.2550     5.6330 oh         1 A1L      -0.691000
     15 O4          -0.1410    10.8060     2.6680 os         1 A1L      -0.425000
     16 O5          -0.7770    13.3290     4.0320 os         1 A1L      -0.605400
     17 OP1         -1.7380    15.6980     3.7250 o          1 A1L      -0.915833
     18 OP2          0.7520    15.2910     4.2430 o          1 A1L      -0.915833
     19 P           -0.4700    14.9160     3.4110 p5         1 A1L       1.263900
     20 S2           3.1980     8.2100     3.6000 s          1 A1L      -0.783400
     21 H1           1.0130     9.1190     2.5620 h2         1 A1L       0.110700
     22 H2           0.7100     9.0700     5.2990 h1         1 A1L       0.058700
     23 H3          -0.2500    11.3010     5.3500 h1         1 A1L       0.088700
     24 H4          -2.1280    10.4430     3.1120 h1         1 A1L       0.040700
     25 H5           3.0980    13.6970     4.2060 ha         1 A1L       0.265000
     26 H6          -1.8560    12.7660     2.3530 h1         1 A1L       0.017700
     27 H7          -2.7010    12.5740     3.8820 h1         1 A1L       0.017700
     28 H8           1.0660    12.4660     3.6540 h4         1 A1L       0.321000
     29 H9          -1.0030     6.2900     3.9380 h1         1 A1L       0.026367
     30 H10          0.5250     6.9370     3.3100 h1         1 A1L       0.026367
     31 H11          0.2850     6.7820     5.0540 h1         1 A1L       0.026367
     32 H12          6.3150    11.8900     4.5930 hn         1 A1L       0.491500
     33 H13          5.5510    13.4380     4.6240 hn         1 A1L       0.491500
     34 H14         -1.7390    10.1620     6.5520 ho         1 A1L       0.487000
     35 OP3         -0.2060    14.6910     1.9270 o          1 A1L      -0.915833
     36 CM2         -0.2150     7.0230     4.1090 c3         1 A1L       0.144900
@<TRIPOS>BOND
     1     1     3 1   
     2     1    10 1   
     3     1    15 1   
     4     1    21 1   
     5     2    10 1   
     6     2    11 1   
     7     2    20 2   
     8     3     4 1   
     9     3    13 1   
    10     3    22 1   
    11     4     6 1   
    12     4    14 1   
    13     4    23 1   
    14     5     7 1   
    15     5    11 2   
    16     5    12 1   
    17     6     8 1   
    18     6    15 1   
    19     6    24 1   
    20     7     9 2   
    21     7    25 1   
    22     8    16 1   
    23     8    26 1   
    24     8    27 1   
    25     9    10 1   
    26     9    28 1   
    27    12    32 1   
    28    12    33 1   
    29    13    36 1   
    30    14    34 1   
    31    16    19 1   
    32    17    19 1   
    33    18    19 1   
    34    19    35 1   
    35    29    36 1   
    36    30    36 1   
    37    31    36 1   
@<TRIPOS>SUBSTRUCTURE
     1 A1L         1 TEMP              0 ****  ****    0 ROOT
