@<TRIPOS>MOLECULE
A1L
   23    22     1     0     0
SMALL
abcg2


@<TRIPOS>ATOM
      1 CE          -3.1250    -1.0070     0.8210 c3         1 A1L       0.079200
      2 SD          -2.0780    -0.1510    -0.3600 s4         1 A1L      -0.423900
      3 C2          -2.1960     1.5460     0.2150 c3         1 A1L       0.079200
      4 CG          -0.4180    -0.6480     0.1750 c3         1 A1L       0.162900
      5 CB           0.6510    -0.0030    -0.6900 c3         1 A1L      -0.052400
      6 CA           2.0450    -0.5100    -0.3000 c3         1 A1L       0.017500
      7 N            2.2880    -0.2520     1.1090 n8         1 A1L      -1.026200
      8 C            3.0840     0.0910    -1.2900 c          1 A1L       0.698000
      9 OXT          3.8980     0.9120    -0.8280 o          1 A1L      -0.691500
     10 O            2.9870    -0.2960    -2.4720 o          1 A1L      -0.691500
     11 HE1         -3.0470    -2.0720     0.6160 h1         1 A1L       0.109200
     12 HE2         -2.8020    -0.7820     1.8350 h1         1 A1L       0.109200
     13 HE3         -4.1480    -0.6750     0.6560 h1         1 A1L       0.109200
     14 H4          -1.5470     2.1610    -0.4030 h1         1 A1L       0.109200
     15 H5          -3.2280     1.8630     0.0790 h1         1 A1L       0.109200
     16 H6          -1.9070     1.6050     1.2620 h1         1 A1L       0.109200
     17 HG2         -0.3180    -0.3950     1.2300 h1         1 A1L       0.104700
     18 HG3         -0.4110    -1.7350     0.0660 h1         1 A1L       0.104700
     19 HB2          0.4710    -0.2310    -1.7410 hc         1 A1L       0.063700
     20 HB3          0.6210     1.0860    -0.5810 hc         1 A1L       0.063700
     21 HA           2.0460    -1.5970    -0.4430 h1         1 A1L       0.047700
     22 H            3.0940    -0.7880     1.4070 hn         1 A1L       0.405500
     23 H2           2.5760     0.7160     1.2020 hn         1 A1L       0.405500
@<TRIPOS>BOND
     1     1     2 1   
     2     1    11 1   
     3     1    12 1   
     4     1    13 1   
     5     2     3 1   
     6     2     4 1   
     7     3    14 1   
     8     3    15 1   
     9     3    16 1   
    10     4     5 1   
    11     4    17 1   
    12     4    18 1   
    13     5     6 1   
    14     5    19 1   
    15     5    20 1   
    16     6     7 1   
    17     6     8 1   
    18     6    21 1   
    19     7    22 1   
    20     7    23 1   
    21     8     9 1   
    22     8    10 1   
@<TRIPOS>SUBSTRUCTURE
     1 A1L         1 TEMP              0 ****  ****    0 ROOT
