@<TRIPOS>MOLECULE
A1L
   25    24     1     0     0
SMALL
abcg2


@<TRIPOS>ATOM
      1 N            2.7890     1.7390     0.7050 n8         1 A1L      -1.004200
      2 CA           2.2370     0.4420     0.3230 c3         1 A1L       0.016500
      3 CB           0.7090     0.5480     0.3520 c3         1 A1L      -0.052400
      4 CG          -0.0190    -0.7710     0.1150 c3         1 A1L      -0.102400
      5 CD          -1.5000    -0.7130     0.4700 c3         1 A1L       0.150300
      6 O1          -2.1400    -1.9620     0.3160 oh         1 A1L      -0.705000
      7 CE          -2.2470     0.2410    -0.4420 c3         1 A1L       0.098600
      8 NZ          -3.6950     0.2480    -0.1010 nz         1 A1L      -0.973000
      9 C            2.6970    -0.0660    -1.0650 c          1 A1L       0.683000
     10 OXT          2.9060    -1.2910    -1.1820 o          1 A1L      -0.721000
     11 O            2.7850     0.7970    -1.9640 o          1 A1L      -0.721000
     12 H            3.7910     1.6410     0.8310 hn         1 A1L       0.394500
     13 H2           2.6930     2.3530    -0.0970 hn         1 A1L       0.394500
     14 HA           2.5370    -0.2860     1.0840 h1         1 A1L       0.045700
     15 HB2          0.4190     0.9530     1.3270 hc         1 A1L       0.020700
     16 HB3          0.4040     1.2910    -0.3920 hc         1 A1L       0.020700
     17 HG2          0.0840    -1.0970    -0.9240 hc         1 A1L       0.088200
     18 HG3          0.4390    -1.5500     0.7330 hc         1 A1L       0.088200
     19 HD2         -1.6000    -0.3520     1.5050 h1         1 A1L       0.036700
     20 H9          -1.8520    -2.5480     1.0230 ho         1 A1L       0.484000
     21 HE2         -1.8870     1.2620    -0.3440 hx         1 A1L       0.119700
     22 HE3         -2.1640    -0.0640    -1.4850 hx         1 A1L       0.119700
     23 HZ1         -4.2410     0.7780    -0.7810 hn         1 A1L       0.506333
     24 HZ2         -4.0660    -0.7030    -0.0800 hn         1 A1L       0.506333
     25 HZ3         -3.8690     0.6650     0.8150 hn         1 A1L       0.506333
@<TRIPOS>BOND
     1     1     2 1   
     2     1    12 1   
     3     1    13 1   
     4     2     3 1   
     5     2     9 1   
     6     2    14 1   
     7     3     4 1   
     8     3    15 1   
     9     3    16 1   
    10     4     5 1   
    11     4    17 1   
    12     4    18 1   
    13     5     6 1   
    14     5     7 1   
    15     5    19 1   
    16     6    20 1   
    17     7     8 1   
    18     7    21 1   
    19     7    22 1   
    20     8    23 1   
    21     8    24 1   
    22     8    25 1   
    23     9    10 1   
    24     9    11 1   
@<TRIPOS>SUBSTRUCTURE
     1 A1L         1 TEMP              0 ****  ****    0 ROOT
