@<TRIPOS>MOLECULE
A1L
   39    39     1     0     0
SMALL
abcg2


@<TRIPOS>ATOM
      1 C02         50.6330   -19.3270    46.2720 c6         1 A1L       0.045700
      2 C03         51.4230   -19.0390    45.0090 c          1 A1L       0.563000
      3 C05         53.4270   -19.9870    46.1500 c6         1 A1L       0.035700
      4 C06         52.4950   -20.7850    47.0400 c          1 A1L       0.562000
      5 C07         50.4920   -18.0570    47.1540 c3         1 A1L      -0.066700
      6 C08         49.6090   -17.0090    46.4810 c3         1 A1L      -0.092100
      7 C09         50.0060   -18.3600    48.5780 c3         1 A1L      -0.078400
      8 C10         48.6090   -18.9360    48.7310 c3         1 A1L       0.164600
      9 C11         54.2110   -18.9130    46.9190 c3         1 A1L      -0.084400
     10 C12         55.1450   -19.3900    48.0330 c3         1 A1L      -0.056700
     11 C13         56.1860   -20.3890    47.5380 c3         1 A1L      -0.089600
     12 C14         55.8290   -18.1770    48.6570 c3         1 A1L      -0.089600
     13 N01         51.2000   -20.4550    46.9770 ns         1 A1L      -0.492900
     14 N04         52.7110   -19.4090    45.0290 ns         1 A1L      -0.504900
     15 O15         52.9230   -21.6800    47.7550 o          1 A1L      -0.561000
     16 O16         50.9030   -18.5050    44.0410 o          1 A1L      -0.560000
     17 O17         48.5770   -20.2650    48.2460 oh         1 A1L      -0.682000
     18 H021        49.6350   -19.6250    45.9470 h1         1 A1L       0.093700
     19 H051        54.1320   -20.7060    45.7290 h1         1 A1L       0.084700
     20 H071        51.4920   -17.6240    47.2710 hc         1 A1L       0.048700
     21 H081        49.4610   -16.1610    47.1500 hc         1 A1L       0.043033
     22 H082        50.0510   -16.6300    45.5630 hc         1 A1L       0.043033
     23 H083        48.6250   -17.4100    46.2310 hc         1 A1L       0.043033
     24 H091        50.7210   -19.0060    49.0960 hc         1 A1L       0.053200
     25 H092        50.0220   -17.4140    49.1260 hc         1 A1L       0.053200
     26 H101        48.3410   -18.9040    49.7950 h1         1 A1L       0.023200
     27 H102        47.8810   -18.3060    48.2070 h1         1 A1L       0.023200
     28 H112        54.8080   -18.3720    46.1760 hc         1 A1L       0.044700
     29 H111        53.5060   -18.1870    47.3330 hc         1 A1L       0.044700
     30 H121        54.5490   -19.8720    48.8130 hc         1 A1L       0.063700
     31 H132        56.8850   -20.6440    48.3370 hc         1 A1L       0.034700
     32 H131        55.7350   -21.3190    47.1920 hc         1 A1L       0.034700
     33 H133        56.7680   -19.9690    46.7140 hc         1 A1L       0.034700
     34 H141        56.4680   -18.4720    49.4900 hc         1 A1L       0.034700
     35 H143        56.4550   -17.6600    47.9250 hc         1 A1L       0.034700
     36 H142        55.1000   -17.4580    49.0360 hc         1 A1L       0.034700
     37 H011        50.5630   -20.9520    47.5870 hn         1 A1L       0.343500
     38 H041        53.2560   -19.1960    44.2060 hn         1 A1L       0.320500
     39 H171        47.6660   -20.5720    48.2380 ho         1 A1L       0.451000
@<TRIPOS>BOND
     1     1     2 1   
     2     1     5 1   
     3     1    13 1   
     4     1    18 1   
     5     2    14 1   
     6     2    16 2   
     7     3     4 1   
     8     3     9 1   
     9     3    14 1   
    10     3    19 1   
    11     4    13 1   
    12     4    15 2   
    13     5     6 1   
    14     5     7 1   
    15     5    20 1   
    16     6    21 1   
    17     6    22 1   
    18     6    23 1   
    19     7     8 1   
    20     7    24 1   
    21     7    25 1   
    22     8    17 1   
    23     8    26 1   
    24     8    27 1   
    25     9    10 1   
    26     9    28 1   
    27     9    29 1   
    28    10    11 1   
    29    10    12 1   
    30    10    30 1   
    31    11    31 1   
    32    11    32 1   
    33    11    33 1   
    34    12    34 1   
    35    12    35 1   
    36    12    36 1   
    37    13    37 1   
    38    14    38 1   
    39    17    39 1   
@<TRIPOS>SUBSTRUCTURE
     1 A1L         1 TEMP              0 ****  ****    0 ROOT
