@<TRIPOS>MOLECULE
A1L
   68    72     1     0     0
SMALL
abcg2


@<TRIPOS>ATOM
      1 C7         -18.2870   -25.6980    10.7320 ca         1 A1L       0.041100
      2 C4         -19.2820   -26.6590     5.5200 ca         1 A1L      -0.151000
      3 C5         -21.4910   -25.6960     5.6860 ca         1 A1L      -0.210000
      4 C6         -17.4940   -26.8220    10.4710 ca         1 A1L      -0.234000
      5 C3         -20.8350   -26.8120     3.6670 ca         1 A1L      -0.166000
      6 C2         -19.6050   -27.0760     4.2360 ca         1 A1L      -0.071000
      7 C1         -16.5840   -27.3190    11.4270 cg         1 A1L       0.343000
      8 C8         -19.1690   -25.2180     9.7650 ca         1 A1L      -0.343600
      9 C9         -21.8080   -26.1040     4.3900 ca         1 A1L       0.320000
     10 C10        -20.2400   -25.9640     6.2510 ca         1 A1L       0.325000
     11 C11        -17.6280   -27.4480     9.2010 ca         1 A1L       0.744900
     12 C12        -19.2060   -25.9090     8.5060 ca         1 A1L       0.749900
     13 C13        -18.2320   -24.9920    11.9820 cc         1 A1L       0.345800
     14 C14        -19.9880   -24.0670    10.0560 c          1 A1L       0.579600
     15 C15        -15.8130   -30.7310     5.3690 c6         1 A1L      -0.080400
     16 C16        -16.7860   -31.3600     6.3610 c6         1 A1L      -0.073400
     17 C17        -16.0330   -29.2240     5.2660 c6         1 A1L      -0.070400
     18 C18        -16.7170   -30.6820     7.7270 c6         1 A1L      -0.088400
     19 C19        -23.7290   -26.8970     3.1270 c6         1 A1L       0.162800
     20 C20        -23.9530   -24.9400     4.5010 c6         1 A1L       0.162800
     21 C21        -15.9400   -28.5280     6.6230 c6         1 A1L       0.153500
     22 C22        -16.9550   -29.1830     7.5850 c6         1 A1L       0.188500
     23 C23        -24.8020   -26.3500     2.2010 c6         1 A1L       0.166300
     24 C24        -25.0370   -24.4440     3.5510 c6         1 A1L       0.166300
     25 C25        -25.5980   -27.4650     1.5560 c3         1 A1L      -0.089100
     26 C26        -26.0760   -23.6230     4.2860 c3         1 A1L      -0.089100
     27 N27        -15.8280   -27.7410    12.1920 n1         1 A1L      -0.480000
     28 N28        -18.4560   -26.9670     8.2760 nb         1 A1L      -0.852000
     29 N29        -18.9530   -23.9600    12.2340 nd         1 A1L      -0.397300
     30 N30        -19.7890   -23.5310    11.3030 ns         1 A1L      -0.229900
     31 N31        -23.0340   -25.8100     3.7990 nh         1 A1L      -0.789400
     32 N32        -14.5670   -28.5000     7.0980 n8         1 A1L      -1.001200
     33 N33        -20.0300   -25.4640     7.5430 nu         1 A1L      -0.923900
     34 N34        -16.9360   -28.5460     8.8910 nu         1 A1L      -0.914100
     35 O35        -20.8160   -23.5610     9.3000 o          1 A1L      -0.588000
     36 O36        -25.6940   -25.5240     2.9210 os         1 A1L      -0.455000
     37 H2         -22.2240   -25.1770     6.2910 ha         1 A1L       0.120000
     38 H3         -21.0250   -27.1300     2.6510 ha         1 A1L       0.118000
     39 H4         -18.8600   -27.6090     3.6580 ha         1 A1L       0.111000
     40 H5         -17.5640   -25.3080    12.7740 h4         1 A1L       0.058800
     41 H6         -15.9320   -31.1890     4.3840 hc         1 A1L       0.044700
     42 H7         -14.7840   -30.9430     5.6770 hc         1 A1L       0.044700
     43 H8         -17.8050   -31.2750     5.9710 hc         1 A1L       0.046200
     44 H9         -16.5830   -32.4280     6.4680 hc         1 A1L       0.046200
     45 H10        -15.3140   -28.7730     4.5790 hc         1 A1L       0.052700
     46 H11        -17.0280   -29.0380     4.8490 hc         1 A1L       0.052700
     47 H12        -17.4630   -31.1090     8.4000 hc         1 A1L       0.045700
     48 H13        -15.7390   -30.8700     8.1840 hc         1 A1L       0.045700
     49 H14        -24.1930   -27.5770     3.8600 h1         1 A1L       0.047950
     50 H15        -23.0310   -27.4850     2.5350 h1         1 A1L       0.047950
     51 H16        -24.4210   -25.4420     5.3630 h1         1 A1L       0.047950
     52 H17        -23.4150   -24.0690     4.8800 h1         1 A1L       0.047950
     53 H18        -16.2450   -27.4850     6.4920 h1         1 A1L       0.073700
     54 H19        -17.9530   -29.0360     7.1680 h1         1 A1L       0.095700
     55 H20        -24.3030   -25.7560     1.4190 h1         1 A1L       0.043700
     56 H21        -24.5500   -23.8170     2.7870 h1         1 A1L       0.043700
     57 H22        -26.3570   -27.0650     0.8840 hc         1 A1L       0.045700
     58 H23        -24.9390   -28.1070     0.9720 hc         1 A1L       0.045700
     59 H24        -26.0950   -28.0820     2.3070 hc         1 A1L       0.045700
     60 H25        -25.6090   -22.7590     4.7590 hc         1 A1L       0.045700
     61 H26        -26.8400   -23.2540     3.6010 hc         1 A1L       0.045700
     62 H27        -26.5650   -24.2120     5.0630 hc         1 A1L       0.045700
     63 H28        -20.3350   -22.7200    11.5620 hn         1 A1L       0.359500
     64 H29        -14.5120   -28.0090     7.9820 hn         1 A1L       0.397000
     65 H30        -14.2170   -29.4340     7.2720 hn         1 A1L       0.397000
     66 H32        -20.6240   -24.6910     7.8340 hn         1 A1L       0.545000
     67 H33        -16.2880   -28.9150     9.5720 hn         1 A1L       0.502000
     68 H1         -18.3070   -26.8630     5.9280 ha         1 A1L       0.138000
@<TRIPOS>BOND
     1     1     4 ar  
     2     1     8 ar  
     3     1    13 1   
     4     2     6 ar  
     5     2    10 ar  
     6     2    68 1   
     7     3     9 ar  
     8     3    10 ar  
     9     3    37 1   
    10     4     7 1   
    11     4    11 ar  
    12     5     6 ar  
    13     5     9 ar  
    14     5    38 1   
    15     6    39 1   
    16     7    27 3   
    17     8    12 ar  
    18     8    14 1   
    19     9    31 1   
    20    10    33 1   
    21    11    28 ar  
    22    11    34 1   
    23    12    28 ar  
    24    12    33 1   
    25    13    29 2   
    26    13    40 1   
    27    14    30 1   
    28    14    35 2   
    29    15    16 1   
    30    15    17 1   
    31    15    41 1   
    32    15    42 1   
    33    16    18 1   
    34    16    43 1   
    35    16    44 1   
    36    17    21 1   
    37    17    45 1   
    38    17    46 1   
    39    18    22 1   
    40    18    47 1   
    41    18    48 1   
    42    19    23 1   
    43    19    31 1   
    44    19    49 1   
    45    19    50 1   
    46    20    24 1   
    47    20    31 1   
    48    20    51 1   
    49    20    52 1   
    50    21    22 1   
    51    21    32 1   
    52    21    53 1   
    53    22    34 1   
    54    22    54 1   
    55    23    25 1   
    56    23    36 1   
    57    23    55 1   
    58    24    26 1   
    59    24    36 1   
    60    24    56 1   
    61    25    57 1   
    62    25    58 1   
    63    25    59 1   
    64    26    60 1   
    65    26    61 1   
    66    26    62 1   
    67    29    30 1   
    68    30    63 1   
    69    32    64 1   
    70    32    65 1   
    71    33    66 1   
    72    34    67 1   
@<TRIPOS>SUBSTRUCTURE
     1 A1L         1 TEMP              0 ****  ****    0 ROOT
