@<TRIPOS>MOLECULE
A1L
   30    33     1     0     0
SMALL
abcg2


@<TRIPOS>ATOM
      1 C01        -12.4640    -5.7450    -0.8550 ca         1 A1L      -0.166000
      2 C02        -12.9610    -4.6290    -0.1500 ca         1 A1L      -0.056000
      3 C03        -13.9040    -4.7560     0.8460 ca         1 A1L      -0.154000
      4 C04        -14.3610    -6.0430     1.1410 ca         1 A1L       0.015800
      5 C05        -13.8710    -7.1730     0.4400 ca         1 A1L      -0.160800
      6 C06        -12.9100    -7.0140    -0.5700 ca         1 A1L      -0.016000
      7 C07        -14.5420    -8.2940     0.9850 cc         1 A1L       0.199900
      8 C08        -15.4030    -7.8260     1.9760 cd         1 A1L      -0.272700
      9 C10        -16.2360    -8.6610     2.7420 cd         1 A1L       0.455600
     10 C12        -17.1930   -10.4770     3.4870 ca         1 A1L       0.154400
     11 C13        -17.5330   -11.8040     3.6490 ca         1 A1L      -0.090000
     12 C14        -18.4850   -12.1140     4.6220 ca         1 A1L      -0.071000
     13 C15        -19.0780   -11.1320     5.4100 ca         1 A1L      -0.135000
     14 C16        -18.7290    -9.7930     5.2410 ca         1 A1L      -0.012000
     15 C17        -17.7890    -9.4880     4.2770 ca         1 A1L      -0.239600
     16 C18        -17.2010    -8.2190     3.8380 c          1 A1L       0.478400
     17 N09        -15.2690    -6.4530     2.0590 na         1 A1L      -0.200700
     18 N11        -16.2650    -9.9500     2.5740 nc         1 A1L      -0.607100
     19 O19        -17.3910    -7.0880     4.2080 o          1 A1L      -0.478100
     20 O20        -14.3820    -9.5570     0.6260 oh         1 A1L      -0.508100
     21 H1         -11.7240    -5.5940    -1.6300 ha         1 A1L       0.116000
     22 H2         -12.5890    -3.6440    -0.4000 ha         1 A1L       0.112000
     23 H3         -14.2780    -3.8920     1.3800 ha         1 A1L       0.120000
     24 H4         -12.5310    -7.8720    -1.1100 ha         1 A1L       0.126000
     25 H5         -17.0810   -12.5790     3.0430 ha         1 A1L       0.134000
     26 H6         -18.7700   -13.1480     4.7660 ha         1 A1L       0.118000
     27 H7         -19.8110   -11.4100     6.1540 ha         1 A1L       0.122000
     28 H8         -19.1810    -9.0190     5.8480 ha         1 A1L       0.129000
     29 H9         -15.8040    -5.8520     2.6650 hn         1 A1L       0.372000
     30 H10        -14.9780   -10.1080     1.1820 ho         1 A1L       0.515000
@<TRIPOS>BOND
     1     1     2 ar  
     2     1     6 ar  
     3     1    21 1   
     4     2     3 ar  
     5     2    22 1   
     6     3     4 ar  
     7     3    23 1   
     8     4     5 ar  
     9     4    17 1   
    10     5     6 ar  
    11     5     7 1   
    12     6    24 1   
    13     7     8 2   
    14     7    20 1   
    15     8     9 1   
    16     8    17 1   
    17     9    16 1   
    18     9    18 2   
    19    10    11 ar  
    20    10    15 ar  
    21    10    18 1   
    22    11    12 ar  
    23    11    25 1   
    24    12    13 ar  
    25    12    26 1   
    26    13    14 ar  
    27    13    27 1   
    28    14    15 ar  
    29    14    28 1   
    30    15    16 1   
    31    16    19 2   
    32    17    29 1   
    33    20    30 1   
@<TRIPOS>SUBSTRUCTURE
     1 A1L         1 TEMP              0 ****  ****    0 ROOT
