@<TRIPOS>MOLECULE
A1L
   49    52     1     0     0
SMALL
abcg2


@<TRIPOS>ATOM
      1 C10          4.1320    -5.0610    83.5340 c2         1 A1L       0.185900
      2 C13          5.7340    -6.3090    81.5350 c6         1 A1L      -0.181400
      3 C20         -1.7840    -2.9070    85.0730 c          1 A1L       0.598600
      4 C24         -3.0670    -1.3980    86.4350 ca         1 A1L       0.039600
      5 C26         -5.3330    -0.6210    86.5240 ca         1 A1L      -0.097500
      6 C28         -4.2460    -1.4420    88.5210 ca         1 A1L      -0.097500
      7 C01          1.5040    -2.2670    83.3800 ca         1 A1L      -0.150000
      8 C02          0.3690    -2.0640    84.1730 ca         1 A1L       0.156600
      9 C03         -0.5690    -3.0960    84.2820 ca         1 A1L      -0.231600
     10 C04         -0.3750    -4.2960    83.6190 ca         1 A1L       0.040000
     11 C05          0.7470    -4.4680    82.8390 ca         1 A1L      -0.205200
     12 C06          1.7050    -3.4600    82.7180 ca         1 A1L      -0.019600
     13 C07          2.9760    -3.5930    81.9120 c          1 A1L       0.621900
     14 C08          3.9090    -4.6890    82.2400 ce         1 A1L      -0.346400
     15 C11          5.0670    -6.1560    83.9260 c6         1 A1L      -0.092200
     16 C12          5.3630    -7.1000    82.7760 c6         1 A1L      -0.062400
     17 C14          4.6570    -5.3260    81.1440 c          1 A1L       0.601300
     18 C18         -0.9490    -0.6420    85.6060 c          1 A1L       0.626000
     19 C25         -4.1770    -0.8670    85.8010 ca         1 A1L      -0.075500
     20 C27         -5.3560    -0.9140    87.8790 ca         1 A1L       0.130000
     21 C29         -3.0950    -1.6850    87.7890 ca         1 A1L      -0.075500
     22 N17          0.1700    -0.8790    84.8390 n          1 A1L      -0.297000
     23 N19         -1.8860    -1.6670    85.6740 n          1 A1L      -0.300600
     24 N31          0.8750    -5.6930    82.0800 no         1 A1L       0.696200
     25 O09          3.1930    -2.7620    81.0630 o          1 A1L      -0.468100
     26 O15          3.5380    -4.3970    84.5090 oh         1 A1L      -0.525100
     27 O16          4.4380    -5.0690    79.9770 o          1 A1L      -0.485100
     28 O21         -2.6480    -3.7430    85.2000 o          1 A1L      -0.492000
     29 O22         -1.1340     0.3950    86.1960 o          1 A1L      -0.520000
     30 O32          1.4900    -5.6390    81.0400 o          1 A1L      -0.387500
     31 O33          0.3500    -6.6900    82.5150 o          1 A1L      -0.387500
     32 CL1         -6.8000    -0.6180    88.7850 cl         1 A1L      -0.194000
     33 H1           5.9380    -6.9630    80.6870 hc         1 A1L       0.074700
     34 H2           6.6480    -5.7330    81.7250 hc         1 A1L       0.074700
     35 H3          -6.2040    -0.2070    86.0340 ha         1 A1L       0.134500
     36 H4          -4.2750    -1.6630    89.5790 ha         1 A1L       0.134500
     37 H5           2.2590    -1.5000    83.2890 ha         1 A1L       0.145000
     38 H6          -1.1240    -5.0710    83.7010 ha         1 A1L       0.173000
     39 H7           4.6410    -6.6980    84.7760 hc         1 A1L       0.065200
     40 H8           5.9910    -5.6900    84.2880 hc         1 A1L       0.065200
     41 H9           4.4860    -7.7210    82.5750 hc         1 A1L       0.061200
     42 H10          6.1730    -7.7740    83.0530 hc         1 A1L       0.061200
     43 H11          0.8480     1.0310    85.3220 h1         1 A1L       0.064033
     44 H12          2.1270    -0.1640    85.1070 h1         1 A1L       0.064033
     45 H13          1.2710     0.4980    83.6950 h1         1 A1L       0.064033
     46 H14         -4.1450    -0.6440    84.7420 ha         1 A1L       0.127000
     47 H15         -2.2220    -2.0990    88.2770 ha         1 A1L       0.127000
     48 H16          3.7310    -4.7810    85.3750 ho         1 A1L       0.482000
     49 C23          1.1650     0.1810    84.7310 c3         1 A1L       0.079300
@<TRIPOS>BOND
     1     1    14 2   
     2     1    15 1   
     3     1    26 1   
     4     2    16 1   
     5     2    17 1   
     6     2    33 1   
     7     2    34 1   
     8     3     9 1   
     9     3    23 1   
    10     3    28 2   
    11     4    19 ar  
    12     4    21 ar  
    13     4    23 1   
    14     5    19 ar  
    15     5    20 ar  
    16     5    35 1   
    17     6    20 ar  
    18     6    21 ar  
    19     6    36 1   
    20     7     8 ar  
    21     7    12 ar  
    22     7    37 1   
    23     8     9 ar  
    24     8    22 1   
    25     9    10 ar  
    26    10    11 ar  
    27    10    38 1   
    28    11    12 ar  
    29    11    24 1   
    30    12    13 1   
    31    13    14 1   
    32    13    25 2   
    33    14    17 1   
    34    15    16 1   
    35    15    39 1   
    36    15    40 1   
    37    16    41 1   
    38    16    42 1   
    39    17    27 2   
    40    18    22 1   
    41    18    23 1   
    42    18    29 2   
    43    19    46 1   
    44    20    32 1   
    45    21    47 1   
    46    22    49 1   
    47    24    30 1   
    48    24    31 1   
    49    26    48 1   
    50    43    49 1   
    51    44    49 1   
    52    45    49 1   
@<TRIPOS>SUBSTRUCTURE
     1 A1L         1 TEMP              0 ****  ****    0 ROOT
