@<TRIPOS>MOLECULE
A1L
   55    57     1     0     0
SMALL
abcg2


@<TRIPOS>ATOM
      1 C13        117.9000   124.2810   125.1310 ca         1 A1L       0.028000
      2 C15        116.4600   122.5100   125.7930 ca         1 A1L      -0.216000
      3 C20        116.9870   125.7230   128.3940 ca         1 A1L      -0.109000
      4 C21        117.8260   126.1340   129.4180 ca         1 A1L      -0.058000
      5 C22        118.4110   127.3960   129.3780 ca         1 A1L      -0.199300
      6 C24        117.3200   127.8130   127.2800 ca         1 A1L      -0.109000
      7 C01        124.2070   122.7850   123.7190 c5         1 A1L      -0.077900
      8 C02        124.5110   122.9810   122.2160 c5         1 A1L      -0.077900
      9 C03        123.6730   121.9200   121.4780 c5         1 A1L      -0.077400
     10 C04        122.6190   121.4630   122.4890 c5         1 A1L      -0.077700
     11 C05        123.3970   121.4900   123.8050 c5         1 A1L      -0.077400
     12 C06        121.9720   120.1310   122.1370 c3         1 A1L      -0.056400
     13 C07        120.9660   119.6280   123.1730 c3         1 A1L      -0.156400
     14 O09        119.0980   120.9400   122.4450 o          1 A1L      -0.573100
     15 N10        119.6800   121.0870   124.6220 ns         1 A1L      -0.175000
     16 C11        118.6750   122.0210   124.9670 ca         1 A1L      -0.151000
     17 C12        118.9230   123.3910   124.8030 ca         1 A1L       0.313000
     18 C14        116.6650   123.8910   125.6360 ca         1 A1L       0.332000
     19 C16        117.4440   121.6050   125.4520 ca         1 A1L      -0.031000
     20 N17        115.6410   124.7540   125.9450 nu         1 A1L      -0.952200
     21 C18        115.7640   126.1660   126.2110 c3         1 A1L       0.265100
     22 C19        116.7200   126.5590   127.3140 ca         1 A1L      -0.077300
     23 C23        118.1540   128.2370   128.3020 ca         1 A1L      -0.058000
     24 N30        120.1090   123.8530   124.2810 nv         1 A1L      -1.051000
     25 F26        120.0010   128.9250   130.2140 f          1 A1L      -0.114667
     26 F27        120.1150   126.9030   130.9340 f          1 A1L      -0.114667
     27 F28        118.5200   128.1830   131.5870 f          1 A1L      -0.114667
     28 F29        118.1600   125.5950   124.9230 f          1 A1L      -0.191000
     29 H151       115.5110   122.1590   126.1810 ha         1 A1L       0.115000
     30 H201       116.5380   124.7390   128.4450 ha         1 A1L       0.120500
     31 H211       118.0130   125.4610   130.2460 ha         1 A1L       0.129500
     32 H241       117.1370   128.4740   126.4420 ha         1 A1L       0.120500
     33 H011       123.6070   123.6180   124.0940 hc         1 A1L       0.039950
     34 H022       125.5740   122.8620   122.0010 hc         1 A1L       0.039950
     35 H021       124.2410   123.9880   121.8950 hc         1 A1L       0.039950
     36 H032       123.2300   122.2940   120.5540 hc         1 A1L       0.039950
     37 H031       124.2990   121.0640   121.2060 hc         1 A1L       0.039950
     38 H041       121.8400   122.2360   122.5350 hc         1 A1L       0.061700
     39 H052       122.7600   121.4550   124.6920 hc         1 A1L       0.039950
     40 H051       124.0600   120.6190   123.8500 hc         1 A1L       0.039950
     41 H061       121.4780   120.2090   121.1650 hc         1 A1L       0.052200
     42 H062       122.7530   119.3730   122.0240 hc         1 A1L       0.052200
     43 H071       120.5370   118.6830   122.8300 hc         1 A1L       0.056700
     44 H072       121.4690   119.4150   124.1180 hc         1 A1L       0.056700
     45 H101       120.3020   120.7510   125.3420 hn         1 A1L       0.147000
     46 H161       117.2600   120.5450   125.5720 ha         1 A1L       0.119000
     47 H171       114.8700   124.3090   126.4140 hn         1 A1L       0.473000
     48 H181       116.0130   126.7170   125.3040 h1         1 A1L       0.066700
     49 H182       114.7650   126.5050   126.4910 h1         1 A1L       0.066700
     50 H231       118.5990   129.2210   128.2440 ha         1 A1L       0.129500
     51 H302       120.3570   124.8020   124.5100 hn         1 A1L       0.456500
     52 H301       120.8900   123.2270   124.3950 hn         1 A1L       0.456500
     53 C25        119.2640   127.8510   130.5190 c3         1 A1L       0.356300
     54 C08        119.8250   120.6030   123.3640 c          1 A1L       0.600100
     55 H012       125.1110   122.7520   124.3290 hc         1 A1L       0.039950
@<TRIPOS>BOND
     1     1    17 ar  
     2     1    18 ar  
     3     1    28 1   
     4     2    18 ar  
     5     2    19 ar  
     6     2    29 1   
     7     3     4 ar  
     8     3    22 ar  
     9     3    30 1   
    10     4     5 ar  
    11     4    31 1   
    12     5    23 ar  
    13     5    53 1   
    14     6    22 ar  
    15     6    23 ar  
    16     6    32 1   
    17     7     8 1   
    18     7    11 1   
    19     7    33 1   
    20     7    55 1   
    21     8     9 1   
    22     8    34 1   
    23     8    35 1   
    24     9    10 1   
    25     9    36 1   
    26     9    37 1   
    27    10    11 1   
    28    10    12 1   
    29    10    38 1   
    30    11    39 1   
    31    11    40 1   
    32    12    13 1   
    33    12    41 1   
    34    12    42 1   
    35    13    43 1   
    36    13    44 1   
    37    13    54 1   
    38    14    54 2   
    39    15    16 1   
    40    15    45 1   
    41    15    54 1   
    42    16    17 ar  
    43    16    19 ar  
    44    17    24 1   
    45    18    20 1   
    46    19    46 1   
    47    20    21 1   
    48    20    47 1   
    49    21    22 1   
    50    21    48 1   
    51    21    49 1   
    52    23    50 1   
    53    24    51 1   
    54    24    52 1   
    55    25    53 1   
    56    26    53 1   
    57    27    53 1   
@<TRIPOS>SUBSTRUCTURE
     1 A1L         1 TEMP              0 ****  ****    0 ROOT
