@<TRIPOS>MOLECULE
A1L
   41    43     1     0     0
SMALL
abcg2


@<TRIPOS>ATOM
      1 C10        -18.7180   -28.7970    -1.8170 c3         1 A1L       0.371300
      2 C17        -12.2730   -28.0970    -1.2230 c          1 A1L       0.610000
      3 C20         -9.8150   -26.0890    -1.0050 c          1 A1L       0.476600
      4 C21         -8.7950   -25.2270    -1.6630 ca         1 A1L       0.265500
      5 C24         -6.9150   -23.7460    -2.9290 ca         1 A1L      -0.138000
      6 C26         -8.5580   -23.9360    -1.2100 ca         1 A1L      -0.099000
      7 C28        -10.5730   -28.8570     0.3610 c          1 A1L       0.479700
      8 C03        -11.6700   -29.5590     1.0470 cc         1 A1L       0.234000
      9 C06        -14.5600   -28.8110    -0.8290 ca         1 A1L       0.122600
     10 C07        -14.9650   -29.2840    -2.0660 ca         1 A1L      -0.115000
     11 C08        -16.3110   -29.2740    -2.3860 ca         1 A1L      -0.027000
     12 C09        -17.2560   -28.8030    -1.4830 ca         1 A1L      -0.244300
     13 C14        -16.8130   -28.3440    -0.2500 ca         1 A1L       0.232000
     14 C16        -15.4780   -28.3350     0.0940 ca         1 A1L      -0.147000
     15 C23         -7.2290   -25.0460    -3.3070 ca         1 A1L       0.334900
     16 C25         -7.5930   -23.1830    -1.8600 ca         1 A1L      -0.083000
     17 F11        -19.4200   -29.5870    -0.9970 f          1 A1L      -0.106667
     18 F12        -19.2460   -27.5710    -1.7260 f          1 A1L      -0.106667
     19 F13        -18.9400   -29.2260    -3.0610 f          1 A1L      -0.106667
     20 F15        -17.7000   -27.8850     0.6350 f          1 A1L      -0.153000
     21 N01        -10.3880   -30.5670     2.8290 n2         1 A1L      -0.691100
     22 N04        -12.8780   -29.5120     0.6160 nd         1 A1L      -0.387300
     23 N05        -13.1810   -28.8310    -0.4740 n          1 A1L      -0.079000
     24 N18        -10.9670   -28.2300    -0.8130 n          1 A1L      -0.366400
     25 N22         -8.1460   -25.7720    -2.6890 nb         1 A1L      -0.657000
     26 O27        -10.4910   -25.6990    -0.0850 o          1 A1L      -0.506100
     27 O30        -12.6140   -27.4130    -2.1550 o          1 A1L      -0.514000
     28 H1          -6.1550   -23.1940    -3.4650 ha         1 A1L       0.128000
     29 H2          -9.1110   -23.5330    -0.3720 ha         1 A1L       0.146000
     30 H3         -12.4470   -30.7850     2.6120 h4         1 A1L      -0.014200
     31 H4         -14.2460   -29.6710    -2.7740 ha         1 A1L       0.142000
     32 H5         -16.6170   -29.6500    -3.3520 ha         1 A1L       0.142000
     33 H6         -15.1650   -27.9610     1.0600 ha         1 A1L       0.155000
     34 H7         -10.2370   -27.4600    -2.6080 h1         1 A1L       0.110200
     35 H8          -9.0140   -28.0250    -1.5000 h1         1 A1L       0.110200
     36 H9          -6.7170   -25.5140    -4.1400 h4         1 A1L       0.025100
     37 H10         -7.3750   -22.1730    -1.5380 ha         1 A1L       0.127000
     38 H11        -10.5200   -31.1620     3.6430 hn         1 A1L       0.389400
     39 O29         -9.4310   -28.8110     0.7420 o          1 A1L      -0.450000
     40 C02        -11.4990   -30.3690     2.2630 ce         1 A1L       0.391900
     41 C19         -9.9640   -27.4960    -1.5550 c3         1 A1L       0.000000
@<TRIPOS>BOND
     1     1    12 1   
     2     1    17 1   
     3     1    18 1   
     4     1    19 1   
     5     2    23 1   
     6     2    24 1   
     7     2    27 2   
     8     3     4 1   
     9     3    26 2   
    10     3    41 1   
    11     4     6 ar  
    12     4    25 ar  
    13     5    15 ar  
    14     5    16 ar  
    15     5    28 1   
    16     6    16 ar  
    17     6    29 1   
    18     7     8 1   
    19     7    24 1   
    20     7    39 2   
    21     8    22 2   
    22     8    40 1   
    23     9    10 ar  
    24     9    14 ar  
    25     9    23 1   
    26    10    11 ar  
    27    10    31 1   
    28    11    12 ar  
    29    11    32 1   
    30    12    13 ar  
    31    13    14 ar  
    32    13    20 1   
    33    14    33 1   
    34    15    25 ar  
    35    15    36 1   
    36    16    37 1   
    37    21    38 1   
    38    21    40 2   
    39    22    23 1   
    40    24    41 1   
    41    30    40 1   
    42    34    41 1   
    43    35    41 1   
@<TRIPOS>SUBSTRUCTURE
     1 A1L         1 TEMP              0 ****  ****    0 ROOT
