@<TRIPOS>MOLECULE
A1L
   46    47     1     0     0
SMALL
abcg2


@<TRIPOS>ATOM
      1 C01        -66.0230   -19.3820   -13.1030 cc         1 A1L       0.326600
      2 C02        -66.7570   -19.0180   -12.0040 cd         1 A1L      -0.243600
      3 C03        -66.9620   -19.9600   -10.9500 c          1 A1L       0.607200
      4 C05        -65.4580   -21.5180   -12.1520 c          1 A1L       0.625000
      5 C09        -65.1370   -19.4020   -16.3700 c3         1 A1L       0.137300
      6 C10        -64.1300   -19.0260   -17.4660 c3         1 A1L       0.123300
      7 C13        -63.9890   -20.1230   -18.5430 c3         1 A1L       0.153300
      8 C14        -63.4380   -19.5720   -19.8450 c3         1 A1L       0.158600
      9 C18        -67.4750   -16.9770   -13.0500 c          1 A1L       0.548000
     10 C19        -67.1400   -17.7090   -14.3340 c6         1 A1L       0.143800
     11 C22        -68.6400   -17.2130    -9.8730 c          1 A1L       0.590100
     12 C24        -69.8740   -17.5240   -10.6670 c3         1 A1L      -0.192100
     13 N04        -66.2420   -21.1410   -11.0950 ns         1 A1L      -0.470500
     14 N06        -65.3800   -20.5820   -13.1520 ns         1 A1L      -0.532600
     15 N07        -65.9730   -18.5520   -14.1620 nh         1 A1L      -0.704400
     16 N17        -67.2610   -17.7010   -11.9220 n          1 A1L      -0.275000
     17 O11        -65.0040   -20.7650   -15.9820 oh         1 A1L      -0.748000
     18 O12        -64.5950   -17.8020   -17.9850 oh         1 A1L      -0.726000
     19 O15        -63.1250   -21.1420   -18.0930 oh         1 A1L      -0.705000
     20 O16        -62.2810   -18.8050   -19.5870 oh         1 A1L      -0.725000
     21 O20        -67.8840   -15.8310   -13.0470 o          1 A1L      -0.540000
     22 O25        -64.9000   -22.5930   -12.2160 o          1 A1L      -0.543000
     23 O26        -67.6630   -19.7960    -9.9610 o          1 A1L      -0.532000
     24 O1         -68.6590   -16.9930    -8.6840 o          1 A1L      -0.521100
     25 H082       -63.9690   -18.8170   -14.6630 h1         1 A1L       0.081200
     26 H081       -64.7820   -17.4920   -15.4600 h1         1 A1L       0.081200
     27 H091       -66.1450   -19.2270   -16.7650 h1         1 A1L       0.061700
     28 H101       -63.1390   -18.9050   -17.0050 h1         1 A1L       0.068700
     29 H131       -64.9850   -20.5260   -18.7870 h1         1 A1L       0.032700
     30 H141       -64.2200   -18.9770   -20.3290 h1         1 A1L       0.036700
     31 H142       -63.2260   -20.4150   -20.5150 h1         1 A1L       0.036700
     32 H192       -66.9330   -16.9670   -15.1020 h1         1 A1L       0.079200
     33 H191       -68.0080   -18.2930   -14.6620 h1         1 A1L       0.079200
     34 H212       -66.5030   -17.3500   -10.0060 h1         1 A1L       0.085700
     35 H211       -67.2180   -15.9660   -10.8020 h1         1 A1L       0.085700
     36 H241       -70.7440   -17.5870   -10.0160 hc         1 A1L       0.062033
     37 H242       -70.0420   -16.7370   -11.4060 hc         1 A1L       0.062033
     38 H243       -69.7690   -18.4590   -11.2160 hc         1 A1L       0.062033
     39 H041       -66.3460   -21.8220   -10.3530 hn         1 A1L       0.350500
     40 H061       -65.0150   -20.8910   -14.0540 hn         1 A1L       0.485000
     41 H111       -65.7460   -21.2730   -16.3270 ho         1 A1L       0.524000
     42 H121       -63.8620   -17.3820   -18.4480 ho         1 A1L       0.529000
     43 H151       -63.4770   -21.4610   -17.2540 ho         1 A1L       0.518000
     44 H161       -61.9770   -18.4260   -20.4170 ho         1 A1L       0.509000
     45 C08        -64.9070   -18.5280   -15.1430 c3         1 A1L       0.219800
     46 C21        -67.3370   -17.0390   -10.6340 c3         1 A1L      -0.006000
@<TRIPOS>BOND
     1     1     2 2   
     2     1    14 1   
     3     1    15 1   
     4     2     3 1   
     5     2    16 1   
     6     3    13 1   
     7     3    23 2   
     8     4    13 1   
     9     4    14 1   
    10     4    22 2   
    11     5     6 1   
    12     5    17 1   
    13     5    27 1   
    14     5    45 1   
    15     6     7 1   
    16     6    18 1   
    17     6    28 1   
    18     7     8 1   
    19     7    19 1   
    20     7    29 1   
    21     8    20 1   
    22     8    30 1   
    23     8    31 1   
    24     9    10 1   
    25     9    16 1   
    26     9    21 2   
    27    10    15 1   
    28    10    32 1   
    29    10    33 1   
    30    11    12 1   
    31    11    24 2   
    32    11    46 1   
    33    12    36 1   
    34    12    37 1   
    35    12    38 1   
    36    13    39 1   
    37    14    40 1   
    38    15    45 1   
    39    16    46 1   
    40    17    41 1   
    41    18    42 1   
    42    19    43 1   
    43    20    44 1   
    44    25    45 1   
    45    26    45 1   
    46    34    46 1   
    47    35    46 1   
@<TRIPOS>SUBSTRUCTURE
     1 A1L         1 TEMP              0 ****  ****    0 ROOT
