@<TRIPOS>MOLECULE
A1L
   98    99     1     0     0
SMALL
abcg2


@<TRIPOS>ATOM
      1 C1         115.4390   132.8190   116.6090 ce         1 A1L      -0.086200
      2 C2         114.3130   134.0960   114.7930 cf         1 A1L      -0.186000
      3 C3         114.2610   134.8530   113.5540 cf         1 A1L      -0.061200
      4 C4         113.0520   135.3100   113.1430 ce         1 A1L      -0.181000
      5 C5         112.7570   136.0610   111.9540 ce         1 A1L      -0.169000
      6 C6         111.4980   136.4320   111.6290 cf         1 A1L      -0.176000
      7 C7         111.1080   137.1550   110.4410 cf         1 A1L      -0.061200
      8 C10        107.8220   138.1930   109.0220 ce         1 A1L      -0.171000
      9 C11        107.1960   138.7850   107.8780 ce         1 A1L      -0.177000
     10 C12        105.8650   138.9430   107.6530 cf         1 A1L      -0.062200
     11 C13        105.4570   139.5040   106.3850 cf         1 A1L      -0.176000
     12 C14        104.1820   139.6720   105.9670 ce         1 A1L      -0.169000
     13 C15        103.8610   140.1920   104.6650 ce         1 A1L      -0.182000
     14 C16        102.6290   140.3610   104.1270 cf         1 A1L      -0.059200
     15 C18        101.4080   141.0550   102.0750 c2         1 A1L      -0.193200
     16 C19        101.3540   141.5550   100.6610 c6         1 A1L       0.012700
     17 C20        115.5390   135.0740   112.8050 c3         1 A1L      -0.055900
     18 C22        104.8000   138.5420   108.6290 c3         1 A1L      -0.055900
     19 C24        116.4460   133.3120   117.6470 c6         1 A1L       0.005200
     20 C25        116.5680   132.3150   118.8050 c6         1 A1L      -0.106400
     21 C26        115.2190   131.8120   119.2820 c6         1 A1L       0.173300
     22 C27        114.5610   131.0540   118.1510 c6         1 A1L      -0.043200
     23 C28        114.6150   131.7790   116.8340 c2         1 A1L      -0.094400
     24 C29        100.7660   142.9880   100.5710 c6         1 A1L      -0.029000
     25 C30        100.4680   143.2920    99.1000 c6         1 A1L      -0.106400
     26 C17        102.5380   140.8660   102.7650 cf         1 A1L      -0.192000
     27 C21        112.1800   137.5770   109.4810 c3         1 A1L      -0.055900
     28 C23        101.3520   140.0470   104.8450 c3         1 A1L      -0.055900
     29 C31         99.4310   142.3520    98.5070 c6         1 A1L       0.208500
     30 C32         99.7820   140.9320    98.8170 c2         1 A1L      -0.215200
     31 C33        100.6320   140.5580    99.7720 c2         1 A1L      -0.101400
     32 C34        100.9720   139.1120    99.9850 c3         1 A1L      -0.052900
     33 C35        113.6870   131.1890   115.8130 c3         1 A1L      -0.056900
     34 C36        115.9960   134.6840   118.1700 c3         1 A1L      -0.082600
     35 C37         99.4930   143.1340   101.4100 c3         1 A1L      -0.085600
     36 C38        117.8420   133.4660   117.0290 c3         1 A1L      -0.082600
     37 C39        101.7990   143.9940   101.0750 c3         1 A1L      -0.085600
     38 C42        115.4190   133.5740   115.3480 ce         1 A1L      -0.160000
     39 C8         109.7830   137.3950   110.2490 ce         1 A1L      -0.177000
     40 C9         109.1640   138.0400   109.1310 ce         1 A1L      -0.171000
     41 O40        115.3270   130.9380   120.3880 oh         1 A1L      -0.661000
     42 O41         99.3510   142.4670    97.0950 oh         1 A1L      -0.657000
     43 H1         113.3640   133.9590   115.3030 ha         1 A1L       0.173000
     44 H2         112.1960   135.0790   113.7720 ha         1 A1L       0.169000
     45 H3         113.5740   136.3270   111.2940 ha         1 A1L       0.174000
     46 H4         110.6920   136.1520   112.3030 ha         1 A1L       0.170000
     47 H5         107.1990   137.8270   109.8330 ha         1 A1L       0.172000
     48 H6         107.8730   139.1170   107.0950 ha         1 A1L       0.169000
     49 H7         106.2590   139.7900   105.7090 ha         1 A1L       0.170000
     50 H8         103.3680   139.3890   106.6240 ha         1 A1L       0.173000
     51 H9         104.7130   140.4590   104.0460 ha         1 A1L       0.169000
     52 H10        100.4520   140.8280   102.5370 ha         1 A1L       0.173000
     53 H11        102.3890   141.6060   100.2930 hc         1 A1L       0.058700
     54 H12        115.9900   134.1230   112.5170 hc         1 A1L       0.042033
     55 H13        115.4070   135.6620   111.9010 hc         1 A1L       0.042033
     56 H14        116.2710   135.5910   113.4290 hc         1 A1L       0.042033
     57 H15        105.2010   138.1850   109.5740 hc         1 A1L       0.042700
     58 H16        104.1400   139.3830   108.8500 hc         1 A1L       0.042700
     59 H17        104.1720   137.7500   108.2160 hc         1 A1L       0.042700
     60 H18        117.1620   131.4510   118.4810 hc         1 A1L       0.047700
     61 H19        117.1190   132.7890   119.6240 hc         1 A1L       0.047700
     62 H20        114.5850   132.6710   119.5430 h1         1 A1L       0.033700
     63 H21        113.5140   130.8400   118.3940 hc         1 A1L       0.060200
     64 H22        115.0450   130.0750   118.0400 hc         1 A1L       0.060200
     65 H23        101.3920   143.2000    98.5180 hc         1 A1L       0.048200
     66 H24        100.1320   144.3300    99.0020 hc         1 A1L       0.048200
     67 H25        103.4840   141.0880   102.2750 ha         1 A1L       0.169000
     68 H26        112.7230   136.7110   109.0980 hc         1 A1L       0.042033
     69 H27        111.7950   138.1260   108.6260 hc         1 A1L       0.042033
     70 H28        112.9150   138.2160   109.9750 hc         1 A1L       0.042033
     71 H29        101.5060   139.7000   105.8630 hc         1 A1L       0.042033
     72 H30        100.7080   140.9280   104.8920 hc         1 A1L       0.042033
     73 H31        100.7870   139.2750   104.3170 hc         1 A1L       0.042033
     74 H32         98.4460   142.5780    98.9430 h1         1 A1L       0.036700
     75 H33         99.2980   140.1710    98.2100 ha         1 A1L       0.186000
     76 H34        102.0550   138.9650    99.9680 hc         1 A1L       0.042033
     77 H35        100.6280   138.7490   100.9560 hc         1 A1L       0.042033
     78 H36        100.5310   138.4810    99.2140 hc         1 A1L       0.042033
     79 H37        113.7270   130.0980   115.8650 hc         1 A1L       0.043367
     80 H38        112.6480   131.4670   116.0120 hc         1 A1L       0.043367
     81 H39        113.9190   131.4900   114.7940 hc         1 A1L       0.043367
     82 H40        116.7170   135.0760   118.8910 hc         1 A1L       0.035533
     83 H41        115.9140   135.4070   117.3570 hc         1 A1L       0.035533
     84 H42        115.0240   134.6350   118.6610 hc         1 A1L       0.035533
     85 H43         99.7150   143.1010   102.4780 hc         1 A1L       0.035700
     86 H44         99.0210   144.0970   101.2070 hc         1 A1L       0.035700
     87 H45         98.7570   142.3540   101.2060 hc         1 A1L       0.035700
     88 H46        118.5670   133.6880   117.8140 hc         1 A1L       0.035533
     89 H47        118.1620   132.5480   116.5320 hc         1 A1L       0.035533
     90 H48        117.8950   134.2810   116.3060 hc         1 A1L       0.035533
     91 H49        102.0850   143.7910   102.1090 hc         1 A1L       0.035700
     92 H50        102.7060   143.9700   100.4670 hc         1 A1L       0.035700
     93 H51        101.3990   145.0090   101.0350 hc         1 A1L       0.035700
     94 H52        116.3760   133.7540   114.8700 ha         1 A1L       0.175000
     95 H53        109.1010   137.0420   111.0190 ha         1 A1L       0.168000
     96 H54        109.7870   138.4050   108.3200 ha         1 A1L       0.172000
     97 H55        115.7060   131.4300   121.1230 ho         1 A1L       0.442000
     98 H56         99.0430   143.3550    96.8890 ho         1 A1L       0.439000
@<TRIPOS>BOND
     1     1    19 1   
     2     1    23 2   
     3     1    38 1   
     4     2     3 1   
     5     2    38 2   
     6     2    43 1   
     7     3     4 2   
     8     3    17 1   
     9     4     5 1   
    10     4    44 1   
    11     5     6 2   
    12     5    45 1   
    13     6     7 1   
    14     6    46 1   
    15     7    27 1   
    16     7    39 2   
    17     8     9 1   
    18     8    40 2   
    19     8    47 1   
    20     9    10 2   
    21     9    48 1   
    22    10    11 1   
    23    10    18 1   
    24    11    12 2   
    25    11    49 1   
    26    12    13 1   
    27    12    50 1   
    28    13    14 2   
    29    13    51 1   
    30    14    26 1   
    31    14    28 1   
    32    15    16 1   
    33    15    26 2   
    34    15    52 1   
    35    16    24 1   
    36    16    31 1   
    37    16    53 1   
    38    17    54 1   
    39    17    55 1   
    40    17    56 1   
    41    18    57 1   
    42    18    58 1   
    43    18    59 1   
    44    19    20 1   
    45    19    34 1   
    46    19    36 1   
    47    20    21 1   
    48    20    60 1   
    49    20    61 1   
    50    21    22 1   
    51    21    41 1   
    52    21    62 1   
    53    22    23 1   
    54    22    63 1   
    55    22    64 1   
    56    23    33 1   
    57    24    25 1   
    58    24    35 1   
    59    24    37 1   
    60    25    29 1   
    61    25    65 1   
    62    25    66 1   
    63    26    67 1   
    64    27    68 1   
    65    27    69 1   
    66    27    70 1   
    67    28    71 1   
    68    28    72 1   
    69    28    73 1   
    70    29    30 1   
    71    29    42 1   
    72    29    74 1   
    73    30    31 2   
    74    30    75 1   
    75    31    32 1   
    76    32    76 1   
    77    32    77 1   
    78    32    78 1   
    79    33    79 1   
    80    33    80 1   
    81    33    81 1   
    82    34    82 1   
    83    34    83 1   
    84    34    84 1   
    85    35    85 1   
    86    35    86 1   
    87    35    87 1   
    88    36    88 1   
    89    36    89 1   
    90    36    90 1   
    91    37    91 1   
    92    37    92 1   
    93    37    93 1   
    94    38    94 1   
    95    39    40 1   
    96    39    95 1   
    97    40    96 1   
    98    41    97 1   
    99    42    98 1   
@<TRIPOS>SUBSTRUCTURE
     1 A1L         1 TEMP              0 ****  ****    0 ROOT
