@<TRIPOS>MOLECULE
A1L
   34    35     1     0     0
SMALL
abcg2


@<TRIPOS>ATOM
      1 C1         108.7390   119.3120    76.1080 c3         1 A1L      -0.093600
      2 O1         111.5950   120.3650    79.2530 o          1 A1L      -0.572100
      3 C2         109.4380   119.8560    77.3490 c3         1 A1L      -0.045700
      4 C3         108.4070   120.4020    78.3340 c3         1 A1L      -0.093600
      5 N1         111.1060   118.4230    80.2700 ns         1 A1L      -0.466400
      6 N2         111.8010   117.8070    82.4040 nc         1 A1L      -0.708000
      7 C4         110.2900   118.7580    78.0080 c3         1 A1L      -0.079400
      8 C5         111.3030   118.1250    77.0770 ca         1 A1L      -0.089300
      9 C6         111.2670   116.7560    76.8350 ca         1 A1L      -0.089500
     10 C7         112.1810   116.1500    75.9840 ca         1 A1L      -0.102500
     11 C8         113.1450   116.9300    75.3700 ca         1 A1L       0.126000
     12 C9         113.2070   118.2970    75.5950 ca         1 A1L      -0.102500
     13 C10        112.2870   118.8850    76.4480 ca         1 A1L      -0.089500
     14 CL1        114.2910   116.1870    74.3020 cl         1 A1L      -0.199000
     15 C11        111.0450   119.2810    79.2160 c          1 A1L       0.610100
     16 C12        111.7750   118.6740    81.4440 cd         1 A1L       0.532300
     17 C13        112.5190   118.2880    83.4630 cc         1 A1L       0.302900
     18 C14        113.0420   119.5260    83.3050 cd         1 A1L      -0.312000
     19 S1         112.6270   120.1480    81.7510 ss         1 A1L       0.053600
     20 H2         108.1180   120.0860    75.6540 hc         1 A1L       0.039033
     21 H3         109.4460   118.9720    75.3510 hc         1 A1L       0.039033
     22 H1         108.0880   118.4720    76.3610 hc         1 A1L       0.039033
     23 H4         110.0970   120.6750    77.0440 hc         1 A1L       0.069700
     24 H6         108.8650   120.8660    79.2070 hc         1 A1L       0.039033
     25 H7         107.7870   121.1590    77.8530 hc         1 A1L       0.039033
     26 H5         107.7450   119.6060    78.6830 hc         1 A1L       0.039033
     27 H13        110.6430   117.5260    80.2190 hn         1 A1L       0.341500
     28 H8         109.6060   117.9680    78.3350 hc         1 A1L       0.062700
     29 H9         110.5110   116.1450    77.3140 ha         1 A1L       0.124000
     30 H10        112.1360   115.0850    75.8050 ha         1 A1L       0.132500
     31 H11        113.9650   118.9000    75.1120 ha         1 A1L       0.132500
     32 H12        112.3450   119.9530    76.6190 ha         1 A1L       0.124000
     33 H14        112.6330   117.6760    84.3460 h4         1 A1L       0.039100
     34 H15        113.6390   120.0970    83.9990 h4         1 A1L       0.160000
@<TRIPOS>BOND
     1     1     3 1   
     2     1    20 1   
     3     1    21 1   
     4     1    22 1   
     5     2    15 2   
     6     3     4 1   
     7     3     7 1   
     8     3    23 1   
     9     4    24 1   
    10     4    25 1   
    11     4    26 1   
    12     5    15 1   
    13     5    16 1   
    14     5    27 1   
    15     6    16 2   
    16     6    17 1   
    17     7     8 1   
    18     7    15 1   
    19     7    28 1   
    20     8     9 ar  
    21     8    13 ar  
    22     9    10 ar  
    23     9    29 1   
    24    10    11 ar  
    25    10    30 1   
    26    11    12 ar  
    27    11    14 1   
    28    12    13 ar  
    29    12    31 1   
    30    13    32 1   
    31    16    19 1   
    32    17    18 2   
    33    17    33 1   
    34    18    19 1   
    35    18    34 1   
@<TRIPOS>SUBSTRUCTURE
     1 A1L         1 TEMP              0 ****  ****    0 ROOT
