@<TRIPOS>MOLECULE
A1L
  137   144     1     0     0
SMALL
abcg2


@<TRIPOS>ATOM
      1 C9         -14.7320    10.5830   -69.2270 cc         1 A1L      -0.182000
      2 N6          -7.8130    13.5150   -79.7140 nc         1 A1L      -0.331000
      3 C8         -14.7400     9.0430   -72.6570 ca         1 A1L      -0.097000
      4 O3         -12.6660     5.5180   -73.5830 o          1 A1L      -0.602100
      5 N4          -7.4690     9.2000   -76.9120 ns         1 A1L      -0.504900
      6 C7         -15.1780     9.6160   -71.4750 ca         1 A1L      -0.096000
      7 N5          -8.2840    14.3480   -80.6810 nc         1 A1L      -0.348000
      8 N3         -14.9040    11.9410   -67.3710 nd         1 A1L      -0.636000
      9 C6         -14.2700     9.9860   -70.4800 ca         1 A1L      -0.007000
     10 C5         -12.9120     9.7580   -70.7040 ca         1 A1L      -0.096000
     11 C4         -12.4800     9.1930   -71.8930 ca         1 A1L      -0.097000
     12 C2         -12.8790     8.2510   -74.1870 c3         1 A1L       0.156000
     13 N2         -13.8970     3.7080   -75.3960 n          1 A1L      -0.386800
     14 C3         -13.3840     8.8260   -72.8840 ca         1 A1L      -0.091300
     15 C10        -14.2220    11.6390   -68.5190 cd         1 A1L       0.301300
     16 N7          -9.7540    12.7830   -80.3710 na         1 A1L      -0.257800
     17 N8          -8.5320    10.2110   -79.4680 n2         1 A1L      -0.596900
     18 N9         -12.2700     2.5160   -78.2740 ns         1 A1L      -0.497900
     19 C1         -10.6520     8.7600   -76.6570 c3         1 A1L      -0.069400
     20 O2         -16.7670     3.0560   -75.3270 oh         1 A1L      -0.655000
     21 N1         -13.7220     7.1840   -74.6810 ns         1 A1L      -0.490900
     22 C12        -12.9770     3.7880   -76.3700 c          1 A1L       0.604100
     23 C13        -10.8370     2.3670   -76.2430 c3         1 A1L      -0.046000
     24 C20        -13.5400     5.8990   -74.3460 c          1 A1L       0.602100
     25 C21         -9.8870     3.4670   -76.7190 c3         1 A1L      -0.089767
     26 C22        -15.9110    11.1510   -67.1910 cc         1 A1L       0.413300
     27 C23        -13.0430    12.4720   -68.8990 c3         1 A1L      -0.122400
     28 C11        -12.2720     2.5150   -76.8310 c3         1 A1L       0.045700
     29 C14        -10.9090     2.3850   -74.7160 c3         1 A1L      -0.089767
     30 C15        -10.2860     1.0120   -76.6910 c3         1 A1L      -0.089767
     31 C16        -14.5520     4.9240   -74.9330 c5         1 A1L       0.032700
     32 C17        -15.5160     4.4180   -73.8530 c5         1 A1L      -0.082400
     33 C18        -15.8230     2.9950   -74.2850 c5         1 A1L       0.154300
     34 C19        -14.4590     2.5160   -74.7710 c5         1 A1L       0.068000
     35 C27         -9.8450     8.6040   -82.3380 ca         1 A1L      -0.060500
     36 C28         -9.7030     7.4710   -83.1230 ca         1 A1L      -0.147000
     37 C29         -9.0730     6.3430   -82.6090 ca         1 A1L       0.128100
     38 C30         -8.5630     6.3690   -81.3120 ca         1 A1L      -0.147000
     39 C31         -8.6940     7.5110   -80.5420 ca         1 A1L      -0.060500
     40 C32         -7.5620    10.4790   -76.5190 c          1 A1L       0.600100
     41 C33         -7.5010    11.4990   -77.6420 c3         1 A1L      -0.147400
     42 C34         -9.3480     8.6370   -81.0380 ca         1 A1L      -0.152900
     43 C35        -12.0930     9.9710   -80.3440 cc         1 A1L      -0.058300
     44 C36        -13.0830    10.9020   -80.4720 cd         1 A1L      -0.210300
     45 C37         -9.4430    13.9120   -81.0790 cd         1 A1L       0.410800
     46 C38         -8.6930    12.5850   -79.5310 cd         1 A1L       0.383800
     47 C39         -8.6620    11.3960   -78.6310 c3         1 A1L       0.105200
     48 C40         -9.5080     9.8490   -80.2060 ce         1 A1L       0.566500
     49 C41        -10.7890    10.5700   -80.3190 cc         1 A1L      -0.210900
     50 C42        -10.8510    11.9340   -80.4300 cd         1 A1L      -0.124200
     51 C43        -12.7490     9.3530   -75.2450 c3         1 A1L      -0.084400
     52 C44        -12.1710     8.9150   -76.5910 c3         1 A1L      -0.076400
     53 C45         -9.5920     4.0610   -82.9430 c3         1 A1L       0.164600
     54 C46        -11.8190     2.9030   -82.5820 c3         1 A1L      -0.073400
     55 C47        -11.8710     2.8840   -81.0570 c3         1 A1L      -0.081400
     56 C48        -12.6810     1.7060   -80.5320 c3         1 A1L      -0.164400
     57 C49        -12.8020     1.5380   -79.0300 c          1 A1L       0.608100
     58 C50         -7.5140     8.0530   -76.0320 c3         1 A1L       0.097000
     59 C51         -8.6910     7.1170   -76.2850 c3         1 A1L      -0.093400
     60 C52        -10.0630     7.6120   -75.8350 c3         1 A1L      -0.075400
     61 C53        -11.0970     4.1240   -83.1470 c3         1 A1L      -0.111400
     62 O4          -8.9450     5.2500   -83.4010 os         1 A1L      -0.361100
     63 O5          -7.6750    10.8250   -75.3500 o          1 A1L      -0.613100
     64 O6         -13.3560     0.5550   -78.5560 o          1 A1L      -0.619100
     65 S1         -16.1170     9.9620   -68.4060 ss         1 A1L      -0.035400
     66 S2         -12.4590    12.5060   -80.5580 ss         1 A1L       0.259000
     67 H8         -15.4700     8.7640   -73.4070 ha         1 A1L       0.114500
     68 H30         -7.4110     9.0280   -77.9060 hn         1 A1L       0.328500
     69 H7         -16.2380     9.7890   -71.3320 ha         1 A1L       0.118500
     70 H6         -12.1890     9.9970   -69.9350 ha         1 A1L       0.118500
     71 H5         -11.4210     9.0190   -72.0430 ha         1 A1L       0.114500
     72 H4         -11.8960     7.8220   -73.9960 h1         1 A1L       0.088700
     73 H47        -11.8780     3.3260   -78.7280 hn         1 A1L       0.330500
     74 H2         -10.3850     8.6000   -77.7060 hc         1 A1L       0.036700
     75 H1         -10.1930     9.7090   -76.3690 hc         1 A1L       0.036700
     76 H22        -16.9120     2.1660   -75.6650 ho         1 A1L       0.450000
     77 H3         -14.4570     7.4160   -75.3320 hn         1 A1L       0.314500
     78 H24         -8.8890     3.2830   -76.3150 hc         1 A1L       0.040367
     79 H25         -9.7900     3.4870   -77.8070 hc         1 A1L       0.040367
     80 H23        -10.1950     4.4570   -76.3880 hc         1 A1L       0.040367
     81 H26        -16.5880    11.2150   -66.3500 h5         1 A1L       0.052100
     82 H29        -13.2170    13.5140   -68.6330 hc         1 A1L       0.052700
     83 H27        -12.1410    12.1490   -68.3740 hc         1 A1L       0.052700
     84 H28        -12.8370    12.4210   -69.9660 hc         1 A1L       0.052700
     85 H32         -9.7220    15.2860   -82.6450 hc         1 A1L       0.064367
     86 H31        -10.6050    13.7720   -82.8660 hc         1 A1L       0.064367
     87 H33        -11.1870    14.9790   -81.7190 hc         1 A1L       0.064367
     88 H9         -12.8280     1.6320   -76.5190 h1         1 A1L       0.088700
     89 H11         -9.9180     2.2040   -74.2970 hc         1 A1L       0.040367
     90 H12        -11.2590     3.3410   -74.3230 hc         1 A1L       0.040367
     91 H10        -11.5680     1.6010   -74.3360 hc         1 A1L       0.040367
     92 H14         -9.2950     0.8510   -76.2620 hc         1 A1L       0.040367
     93 H13        -10.9260     0.1900   -76.3620 hc         1 A1L       0.040367
     94 H15        -10.1860     0.9500   -77.7750 hc         1 A1L       0.040367
     95 H16        -15.1060     5.3880   -75.7540 h1         1 A1L       0.073700
     96 H18        -15.0230     4.3940   -72.8800 hc         1 A1L       0.075200
     97 H17        -16.4050     5.0400   -73.7670 hc         1 A1L       0.075200
     98 H19        -16.1760     2.3780   -73.4520 h1         1 A1L       0.054700
     99 H20        -14.5450     1.6860   -75.4720 h1         1 A1L       0.063200
    100 H21        -13.8510     2.1860   -73.9250 h1         1 A1L       0.063200
    101 H35        -12.3760     8.0170   -81.2030 hc         1 A1L       0.051700
    102 H34        -11.6320     7.9960   -79.6140 hc         1 A1L       0.051700
    103 H36        -13.3480     8.3320   -79.7720 hc         1 A1L       0.051700
    104 H38        -15.1170    11.6050   -80.4700 hc         1 A1L       0.051367
    105 H39        -14.8320    10.2040   -81.4970 hc         1 A1L       0.051367
    106 H37        -14.8890    10.0200   -79.7470 hc         1 A1L       0.051367
    107 H40        -10.3530     9.4690   -82.7480 ha         1 A1L       0.122000
    108 H41        -10.0910     7.4550   -84.1340 ha         1 A1L       0.126500
    109 H42         -8.0600     5.5020   -80.9020 ha         1 A1L       0.126500
    110 H43         -8.3010     7.5180   -79.5340 ha         1 A1L       0.122000
    111 H45         -7.5100    12.4870   -77.1850 hc         1 A1L       0.091200
    112 H44         -6.5590    11.3990   -78.1880 hc         1 A1L       0.091200
    113 H46         -9.6110    11.3740   -78.0730 h1         1 A1L       0.075700
    114 H48        -13.7430     9.7850   -75.4030 hc         1 A1L       0.048700
    115 H49        -12.1360    10.1550   -74.8260 hc         1 A1L       0.048700
    116 H50        -12.4560     9.6680   -77.3310 hc         1 A1L       0.042200
    117 H51        -12.6480     7.9870   -76.9190 hc         1 A1L       0.042200
    118 H52         -9.1660     3.2460   -83.5280 h1         1 A1L       0.051700
    119 H53         -9.3410     3.8730   -81.8950 h1         1 A1L       0.051700
    120 H55        -11.3480     1.9850   -82.9480 hc         1 A1L       0.045200
    121 H54        -12.8420     2.8920   -82.9680 hc         1 A1L       0.045200
    122 H56        -10.8570     2.8450   -80.6500 hc         1 A1L       0.044200
    123 H57        -12.3130     3.8280   -80.7210 hc         1 A1L       0.044200
    124 H59        -13.7010     1.7530   -80.9260 hc         1 A1L       0.073200
    125 H58        -12.2610     0.7710   -80.9130 hc         1 A1L       0.073200
    126 H60         -6.5850     7.4890   -76.1510 h1         1 A1L       0.054700
    127 H61         -7.5350     8.4120   -75.0040 h1         1 A1L       0.054700
    128 H62         -8.7250     6.8480   -77.3460 hc         1 A1L       0.038700
    129 H63         -8.4700     6.1880   -75.7520 hc         1 A1L       0.038700
    130 H64        -10.0010     7.8890   -74.7780 hc         1 A1L       0.050200
    131 H65        -10.7480     6.7600   -75.8860 hc         1 A1L       0.050200
    132 H67        -11.5000     5.0250   -82.6720 hc         1 A1L       0.053200
    133 H66        -11.3040     4.2140   -84.2160 hc         1 A1L       0.053200
    134 O1         -12.7010     4.8650   -76.8890 o          1 A1L      -0.627100
    135 C25        -12.3730     8.5050   -80.2270 c3         1 A1L      -0.034800
    136 C24        -10.2910    14.5140   -82.1320 c3         1 A1L      -0.129400
    137 C26        -14.5560    10.6750   -80.5520 c3         1 A1L      -0.021800
@<TRIPOS>BOND
     1     1     9 1   
     2     1    15 2   
     3     1    65 1   
     4     2     7 1   
     5     2    46 2   
     6     3     6 ar  
     7     3    14 ar  
     8     3    67 1   
     9     4    24 2   
    10     5    40 1   
    11     5    58 1   
    12     5    68 1   
    13     6     9 ar  
    14     6    69 1   
    15     7    45 2   
    16     8    15 1   
    17     8    26 2   
    18     9    10 ar  
    19    10    11 ar  
    20    10    70 1   
    21    11    14 ar  
    22    11    71 1   
    23    12    14 1   
    24    12    21 1   
    25    12    51 1   
    26    12    72 1   
    27    13    22 1   
    28    13    31 1   
    29    13    34 1   
    30    15    27 1   
    31    16    45 1   
    32    16    46 1   
    33    16    50 1   
    34    17    47 1   
    35    17    48 2   
    36    18    28 1   
    37    18    57 1   
    38    18    73 1   
    39    19    52 1   
    40    19    60 1   
    41    19    74 1   
    42    19    75 1   
    43    20    33 1   
    44    20    76 1   
    45    21    24 1   
    46    21    77 1   
    47    22    28 1   
    48    22   134 2   
    49    23    25 1   
    50    23    28 1   
    51    23    29 1   
    52    23    30 1   
    53    24    31 1   
    54    25    78 1   
    55    25    79 1   
    56    25    80 1   
    57    26    65 1   
    58    26    81 1   
    59    27    82 1   
    60    27    83 1   
    61    27    84 1   
    62    28    88 1   
    63    29    89 1   
    64    29    90 1   
    65    29    91 1   
    66    30    92 1   
    67    30    93 1   
    68    30    94 1   
    69    31    32 1   
    70    31    95 1   
    71    32    33 1   
    72    32    96 1   
    73    32    97 1   
    74    33    34 1   
    75    33    98 1   
    76    34    99 1   
    77    34   100 1   
    78    35    36 ar  
    79    35    42 ar  
    80    35   107 1   
    81    36    37 ar  
    82    36   108 1   
    83    37    38 ar  
    84    37    62 1   
    85    38    39 ar  
    86    38   109 1   
    87    39    42 ar  
    88    39   110 1   
    89    40    41 1   
    90    40    63 2   
    91    41    47 1   
    92    41   111 1   
    93    41   112 1   
    94    42    48 1   
    95    43    44 2   
    96    43    49 1   
    97    43   135 1   
    98    44    66 1   
    99    44   137 1   
   100    45   136 1   
   101    46    47 1   
   102    47   113 1   
   103    48    49 1   
   104    49    50 2   
   105    50    66 1   
   106    51    52 1   
   107    51   114 1   
   108    51   115 1   
   109    52   116 1   
   110    52   117 1   
   111    53    61 1   
   112    53    62 1   
   113    53   118 1   
   114    53   119 1   
   115    54    55 1   
   116    54    61 1   
   117    54   120 1   
   118    54   121 1   
   119    55    56 1   
   120    55   122 1   
   121    55   123 1   
   122    56    57 1   
   123    56   124 1   
   124    56   125 1   
   125    57    64 2   
   126    58    59 1   
   127    58   126 1   
   128    58   127 1   
   129    59    60 1   
   130    59   128 1   
   131    59   129 1   
   132    60   130 1   
   133    60   131 1   
   134    61   132 1   
   135    61   133 1   
   136    85   136 1   
   137    86   136 1   
   138    87   136 1   
   139   101   135 1   
   140   102   135 1   
   141   103   135 1   
   142   104   137 1   
   143   105   137 1   
   144   106   137 1   
@<TRIPOS>SUBSTRUCTURE
     1 A1L         1 TEMP              0 ****  ****    0 ROOT
