@<TRIPOS>MOLECULE
A1L
   54    57     1     0     0
SMALL
abcg2


@<TRIPOS>ATOM
      1 C1         -10.4130     8.4930    -8.4540 c3         1 A1L      -0.382100
      2 S1         -10.3640     7.1260    -7.3140 s6         1 A1L       1.193100
      3 O1          -9.0300     6.5460    -7.3670 o          1 A1L      -0.530000
      4 N1         -10.5600     7.7550    -5.7950 n3         1 A1L      -0.713500
      5 C2          -9.5050     8.6380    -5.3070 c6         1 A1L       0.187800
      6 C3          -9.5940     8.8050    -3.7920 c6         1 A1L       0.189500
      7 N2         -10.9310     9.2730    -3.4470 n3         1 A1L      -0.730600
      8 C4         -11.9510     8.3620    -3.9280 c6         1 A1L       0.167800
      9 C5         -11.8920     8.2340    -5.4350 c6         1 A1L       0.189800
     10 C6         -11.1380     9.6310    -2.0520 c3         1 A1L       0.151500
     11 C7         -10.9820     8.5280    -1.0570 cc         1 A1L       0.066300
     12 O2          -9.7340     8.3250    -0.5250 os         1 A1L      -0.229000
     13 C8          -9.8120     7.2830     0.3080 cc         1 A1L       0.294800
     14 C9         -11.0950     6.7940     0.3320 cd         1 A1L      -0.265600
     15 C10        -11.8490     7.6150    -0.5610 cd         1 A1L      -0.096000
     16 C11        -11.4590     5.6890     1.1660 c          1 A1L       0.596600
     17 O3         -12.5740     5.1880     1.2490 o          1 A1L      -0.544000
     18 N3         -10.3930     5.2000     1.9170 n          1 A1L      -0.283000
     19 C12         -9.1300     5.7100     1.8730 cd         1 A1L       0.006600
     20 C13         -8.7580     6.7620     1.0880 cc         1 A1L      -0.320600
     21 C14         -7.3980     7.2930     1.0960 cc         1 A1L       0.332800
     22 C15        -10.6710     4.0650     2.7870 c3         1 A1L       0.078300
     23 C16         -8.5080     9.7850    -3.3700 c3         1 A1L      -0.098100
     24 O4         -11.5180     6.2810    -7.5790 o          1 A1L      -0.530000
     25 C17         -6.7110     7.9860     0.0810 cc         1 A1L      -0.206000
     26 C18         -5.4620     8.2110     0.6090 cd         1 A1L      -0.175000
     27 N4          -5.4560     7.6770     1.8420 na         1 A1L       0.137800
     28 N5          -6.6200     7.1230     2.1560 nd         1 A1L      -0.540800
     29 C19         -4.3680     7.6900     2.7930 c3         1 A1L       0.068900
     30 H3         -11.3660     9.0100    -8.3660 h1         1 A1L       0.100033
     31 H1          -9.5940     9.1780    -8.2450 h1         1 A1L       0.100033
     32 H2         -10.3050     8.0890    -9.4590 h1         1 A1L       0.100033
     33 H5          -8.5330     8.2130    -5.5510 h1         1 A1L       0.057700
     34 H4          -9.5760     9.6290    -5.7750 h1         1 A1L       0.057700
     35 H6          -9.3860     7.8210    -3.3380 h1         1 A1L       0.053700
     36 H7         -11.8650     7.3570    -3.4860 h1         1 A1L       0.050700
     37 H8         -12.9330     8.7540    -3.6550 h1         1 A1L       0.050700
     38 H10        -12.6450     7.5210    -5.7610 h1         1 A1L       0.060700
     39 H9         -12.1060     9.2050    -5.9000 h1         1 A1L       0.060700
     40 H11        -10.4830    10.4620    -1.7860 h1         1 A1L       0.071200
     41 H12        -12.1580    10.0110    -1.9640 h1         1 A1L       0.071200
     42 H13        -12.8980     7.5430    -0.7990 ha         1 A1L       0.154000
     43 H14         -8.4100     5.2200     2.5120 h4         1 A1L       0.218000
     44 H16         -9.7640     3.7910     3.3160 h1         1 A1L       0.055033
     45 H17        -11.4380     4.3180     3.5160 h1         1 A1L       0.055033
     46 H15        -11.0090     3.2090     2.2050 h1         1 A1L       0.055033
     47 H19         -8.4000     9.8550    -2.2900 hc         1 A1L       0.044033
     48 H20         -7.5440     9.4620    -3.7650 hc         1 A1L       0.044033
     49 H18         -8.7150    10.7840    -3.7580 hc         1 A1L       0.044033
     50 H21         -7.0590     8.2630    -0.9000 ha         1 A1L       0.151000
     51 H22         -4.5950     8.7050     0.1990 h4         1 A1L       0.154000
     52 H25         -4.6910     7.1700     3.6890 h1         1 A1L       0.058033
     53 H23         -3.4950     7.1850     2.3830 h1         1 A1L       0.058033
     54 H24         -4.0980     8.7120     3.0530 h1         1 A1L       0.058033
@<TRIPOS>BOND
     1     1     2 1   
     2     1    30 1   
     3     1    31 1   
     4     1    32 1   
     5     2     3 2   
     6     2     4 1   
     7     2    24 2   
     8     4     5 1   
     9     4     9 1   
    10     5     6 1   
    11     5    33 1   
    12     5    34 1   
    13     6     7 1   
    14     6    23 1   
    15     6    35 1   
    16     7     8 1   
    17     7    10 1   
    18     8     9 1   
    19     8    36 1   
    20     8    37 1   
    21     9    38 1   
    22     9    39 1   
    23    10    11 1   
    24    10    40 1   
    25    10    41 1   
    26    11    12 1   
    27    11    15 2   
    28    12    13 1   
    29    13    14 2   
    30    13    20 1   
    31    14    15 1   
    32    14    16 1   
    33    15    42 1   
    34    16    17 2   
    35    16    18 1   
    36    18    19 1   
    37    18    22 1   
    38    19    20 2   
    39    19    43 1   
    40    20    21 1   
    41    21    25 1   
    42    21    28 2   
    43    22    44 1   
    44    22    45 1   
    45    22    46 1   
    46    23    47 1   
    47    23    48 1   
    48    23    49 1   
    49    25    26 2   
    50    25    50 1   
    51    26    27 1   
    52    26    51 1   
    53    27    28 1   
    54    27    29 1   
    55    29    52 1   
    56    29    53 1   
    57    29    54 1   
@<TRIPOS>SUBSTRUCTURE
     1 A1L         1 TEMP              0 ****  ****    0 ROOT
