@<TRIPOS>MOLECULE
A1L
   53    55     1     0     0
SMALL
abcg2


@<TRIPOS>ATOM
      1 C12         28.5980     3.6580    60.2720 c3         1 A1L       0.154600
      2 C16         25.8020     6.3390    61.5320 ca         1 A1L       0.118100
      3 C25         21.9040    12.2460    60.7940 ca         1 A1L      -0.121600
      4 C26         22.4360    11.8950    62.0330 ca         1 A1L      -0.093000
      5 C27         23.1980    10.7470    62.1880 ca         1 A1L      -0.126000
      6 C02         29.6780     4.6870    55.6860 ca         1 A1L       0.397900
      7 C04         28.4540     5.3240    57.4920 ca         1 A1L       0.189300
      8 C05         29.3810     4.7370    58.3290 ca         1 A1L      -0.125900
      9 C06         30.4970     4.1220    57.7250 ca         1 A1L       0.390900
     10 C09         27.6040     7.4680    58.4980 c3         1 A1L      -0.082100
     11 C13         28.4800     3.8890    61.7650 c3         1 A1L      -0.075400
     12 C14         27.7950     5.1860    62.1440 c3         1 A1L       0.171600
     13 C17         24.6610     6.3470    60.7280 ca         1 A1L      -0.175000
     14 C18         23.9080     7.4970    60.5970 ca         1 A1L      -0.078000
     15 C19         24.2560     8.6770    61.2620 cp         1 A1L      -0.023000
     16 C20         25.3860     8.6460    62.0750 ca         1 A1L      -0.078000
     17 C21         26.1560     7.4990    62.2150 ca         1 A1L      -0.175000
     18 C22         23.4530     9.9040    61.1040 cp         1 A1L      -0.085000
     19 C23         22.9240    10.2590    59.8620 ca         1 A1L      -0.126000
     20 C24         22.1650    11.4090    59.7130 ca         1 A1L      -0.093000
     21 N01         30.6360     4.1020    56.4040 nb         1 A1L      -0.328000
     22 N03         28.6020     5.3040    56.1630 nb         1 A1L      -0.274000
     23 N07         31.4460     3.5200    58.4720 nv         1 A1L      -1.064900
     24 O11         29.2740     4.7720    59.6900 os         1 A1L      -0.350100
     25 O15         26.4910     5.1840    61.5840 os         1 A1L      -0.361100
     26 O29         20.8640    14.1820    61.6550 o          1 A1L      -0.718500
     27 O30         20.6310    13.7380    59.4810 o          1 A1L      -0.718500
     28 H1          27.6090     3.5380    59.8170 h1         1 A1L       0.036700
     29 H2          29.1540     2.7330    60.0850 h1         1 A1L       0.036700
     30 H3          22.2430    12.5250    62.8910 ha         1 A1L       0.127500
     31 H4          23.5800    10.4910    63.1690 ha         1 A1L       0.087000
     32 H5          26.5140     6.1110    57.2330 hc         1 A1L       0.065200
     33 H6          26.8030     5.5020    58.8490 hc         1 A1L       0.065200
     34 H7          26.7030     7.9880    58.8260 hc         1 A1L       0.041700
     35 H8          28.3000     7.4510    59.3360 hc         1 A1L       0.041700
     36 H9          28.0520     8.0520    57.6940 hc         1 A1L       0.041700
     37 H10         27.9470     3.0390    62.1980 hc         1 A1L       0.050700
     38 H11         29.4740     3.8960    62.2200 hc         1 A1L       0.050700
     39 H12         28.3670     6.0420    61.7730 h1         1 A1L       0.038700
     40 H13         27.7430     5.2750    63.2340 h1         1 A1L       0.038700
     41 H14         24.3710     5.4440    60.2040 ha         1 A1L       0.109500
     42 H15         23.0210     7.4710    59.9750 ha         1 A1L       0.118000
     43 H16         25.6960     9.5410    62.6000 ha         1 A1L       0.118000
     44 H17         27.0300     7.5320    62.8520 ha         1 A1L       0.109500
     45 H18         23.1230     9.6380    58.9970 ha         1 A1L       0.087000
     46 H19         21.7710    11.6650    58.7380 ha         1 A1L       0.127500
     47 H20         32.3080     3.2680    58.0170 hn         1 A1L       0.485000
     48 H21         31.5130     3.7410    59.4510 hn         1 A1L       0.485000
     49 H22         29.2490     5.2580    53.7910 hn         1 A1L       0.480500
     50 H23         30.7090     4.4030    53.9620 hn         1 A1L       0.480500
     51 C08         27.2580     6.0560    58.0280 c3         1 A1L      -0.134700
     52 C28         21.0570    13.5040    60.6280 c          1 A1L       0.712600
     53 N10         29.7990     4.6140    54.3340 nv         1 A1L      -1.049900
@<TRIPOS>BOND
     1     1    11 1   
     2     1    24 1   
     3     1    28 1   
     4     1    29 1   
     5     2    13 ar  
     6     2    17 ar  
     7     2    25 1   
     8     3     4 ar  
     9     3    20 ar  
    10     3    52 1   
    11     4     5 ar  
    12     4    30 1   
    13     5    18 ar  
    14     5    31 1   
    15     6    21 ar  
    16     6    22 ar  
    17     6    53 1   
    18     7     8 ar  
    19     7    22 ar  
    20     7    51 1   
    21     8     9 ar  
    22     8    24 1   
    23     9    21 ar  
    24     9    23 1   
    25    10    34 1   
    26    10    35 1   
    27    10    36 1   
    28    10    51 1   
    29    11    12 1   
    30    11    37 1   
    31    11    38 1   
    32    12    25 1   
    33    12    39 1   
    34    12    40 1   
    35    13    14 ar  
    36    13    41 1   
    37    14    15 ar  
    38    14    42 1   
    39    15    16 ar  
    40    15    18 1   
    41    16    17 ar  
    42    16    43 1   
    43    17    44 1   
    44    18    19 ar  
    45    19    20 ar  
    46    19    45 1   
    47    20    46 1   
    48    23    47 1   
    49    23    48 1   
    50    26    52 1   
    51    27    52 1   
    52    32    51 1   
    53    33    51 1   
    54    49    53 1   
    55    50    53 1   
@<TRIPOS>SUBSTRUCTURE
     1 A1L         1 TEMP              0 ****  ****    0 ROOT
