@<TRIPOS>MOLECULE
A1L
   53    56     1     0     0
SMALL
abcg2


@<TRIPOS>ATOM
      1 N1          14.4770    30.2730    60.1110 n          1 A1L      -0.415800
      2 N3          17.8820    27.8370    60.5530 nc         1 A1L      -0.509800
      3 C4          12.6530    36.1650    57.8380 c3         1 A1L       0.357300
      4 C5          14.4890    31.5610    62.2780 c3         1 A1L       0.151600
      5 C6          20.9850    30.0750    58.2390 ca         1 A1L      -0.165000
      6 C7          21.4580    30.7240    57.1170 ca         1 A1L       0.199500
      7 C8          21.5230    30.1220    55.8740 ca         1 A1L      -0.198000
      8 C10         20.6120    28.1160    56.8910 ca         1 A1L      -0.165000
      9 C13         12.7600    34.7560    58.3260 ca         1 A1L      -0.201300
     10 C15         14.1600    32.9270    59.0190 ca         1 A1L      -0.114000
     11 C17         20.5590    28.7540    58.1250 ca         1 A1L      -0.027300
     12 C20         15.2100    29.7910    59.0780 c          1 A1L       0.591600
     13 C21         15.0770    30.4270    61.4480 c3         1 A1L       0.123700
     14 C22         15.1170    29.1170    62.2350 c3         1 A1L      -0.104400
     15 C24         17.7170    29.2010    58.7760 cd         1 A1L      -0.156000
     16 C26         18.5500    28.3680    59.5380 cd         1 A1L       0.238300
     17 C11         11.7820    32.6880    59.0560 ca         1 A1L      -0.114000
     18 C12         11.6350    33.9810    58.5780 ca         1 A1L      -0.055500
     19 C14         14.0240    34.2220    58.5480 ca         1 A1L      -0.055500
     20 C16         13.0430    32.1440    59.2840 ca         1 A1L      -0.062300
     21 C18         20.0000    28.0440    59.3250 c3         1 A1L      -0.058400
     22 C19         13.1350    30.7300    59.8140 c3         1 A1L       0.139300
     23 C23         15.6030    27.9400    61.3950 c3         1 A1L       0.081600
     24 C25         16.5010    29.1540    59.4220 cc         1 A1L      -0.224600
     25 C9          21.0890    28.8140    55.7970 ca         1 A1L       0.199500
     26 F29         13.3680    36.3620    56.7210 f          1 A1L      -0.114667
     27 F30         11.3960    36.5240    57.5650 f          1 A1L      -0.114667
     28 F31         13.1210    37.0420    58.7410 f          1 A1L      -0.114667
     29 F33         21.1380    28.1980    54.6080 f          1 A1L      -0.172000
     30 N2          16.6540    28.3250    60.4740 na         1 A1L       0.150800
     31 O27         13.2400    31.2060    62.8230 oh         1 A1L      -0.665000
     32 O28         14.8460    29.8470    57.9140 o          1 A1L      -0.521000
     33 H1          15.2210    31.7650    63.0690 h1         1 A1L       0.036700
     34 H2          14.4270    32.4680    61.6670 h1         1 A1L       0.036700
     35 H3          20.9480    30.5890    59.1910 ha         1 A1L       0.138500
     36 H4          21.9000    30.6490    55.0070 ha         1 A1L       0.151000
     37 H5          20.2830    27.0900    56.7820 ha         1 A1L       0.138500
     38 H6          15.1560    32.5410    59.1930 ha         1 A1L       0.120000
     39 H7          16.1080    30.7500    61.2840 h1         1 A1L       0.062700
     40 H8          15.7780    29.2680    63.0920 hc         1 A1L       0.070700
     41 H9          14.1330    28.8610    62.6300 hc         1 A1L       0.070700
     42 H10         17.9620    29.7690    57.8940 ha         1 A1L       0.161000
     43 H11         10.8970    32.0960    59.2560 ha         1 A1L       0.120000
     44 H12         10.6390    34.3680    58.4140 ha         1 A1L       0.129500
     45 H13         14.9150    34.8090    58.3620 ha         1 A1L       0.129500
     46 H14         20.1130    26.9640    59.2060 hc         1 A1L       0.068200
     47 H15         20.5740    28.3170    60.2130 hc         1 A1L       0.068200
     48 H16         12.6880    30.0540    59.0830 h1         1 A1L       0.080200
     49 H17         12.5340    30.6500    60.7170 h1         1 A1L       0.080200
     50 H18         14.7810    27.5180    60.8160 h1         1 A1L       0.075700
     51 H19         15.9980    27.1460    62.0230 h1         1 A1L       0.075700
     52 H20         12.8770    31.9740    63.2740 ho         1 A1L       0.454000
     53 F32         21.8730    31.9930    57.2300 f          1 A1L      -0.172000
@<TRIPOS>BOND
     1     1    12 1   
     2     1    13 1   
     3     1    22 1   
     4     2    16 2   
     5     2    30 1   
     6     3     9 1   
     7     3    26 1   
     8     3    27 1   
     9     3    28 1   
    10     4    13 1   
    11     4    31 1   
    12     4    33 1   
    13     4    34 1   
    14     5     6 ar  
    15     5    11 ar  
    16     5    35 1   
    17     6     7 ar  
    18     6    53 1   
    19     7    25 ar  
    20     7    36 1   
    21     8    11 ar  
    22     8    25 ar  
    23     8    37 1   
    24     9    18 ar  
    25     9    19 ar  
    26    10    19 ar  
    27    10    20 ar  
    28    10    38 1   
    29    11    21 1   
    30    12    24 1   
    31    12    32 2   
    32    13    14 1   
    33    13    39 1   
    34    14    23 1   
    35    14    40 1   
    36    14    41 1   
    37    15    16 1   
    38    15    24 2   
    39    15    42 1   
    40    16    21 1   
    41    17    18 ar  
    42    17    20 ar  
    43    17    43 1   
    44    18    44 1   
    45    19    45 1   
    46    20    22 1   
    47    21    46 1   
    48    21    47 1   
    49    22    48 1   
    50    22    49 1   
    51    23    30 1   
    52    23    50 1   
    53    23    51 1   
    54    24    30 1   
    55    25    29 1   
    56    31    52 1   
@<TRIPOS>SUBSTRUCTURE
     1 A1L         1 TEMP              0 ****  ****    0 ROOT
