@<TRIPOS>MOLECULE
A1L
   68    72     1     0     0
SMALL
abcg2


@<TRIPOS>ATOM
      1 O1         -13.8020    15.0320    -8.9640 o          1 A1L      -0.534000
      2 C1         -14.6750    14.2500    -8.6170 c          1 A1L       0.597600
      3 C2         -15.9020    14.5950    -7.9660 cc         1 A1L      -0.266600
      4 C3         -16.4430    15.8510    -7.5560 cc         1 A1L      -0.094000
      5 C4         -17.2980    17.0040    -4.4070 c6         1 A1L       0.165800
      6 C5         -17.3110    17.2450    -2.9120 c6         1 A1L       0.198800
      7 C6         -18.2190    16.7270     0.3300 c3         1 A1L      -0.379100
      8 O2         -15.8060    16.2400    -0.5840 o          1 A1L      -0.532500
      9 O3         -17.4250    14.3330    -0.3940 o          1 A1L      -0.532500
     10 N1         -17.6400    15.9820    -2.2610 n3         1 A1L      -0.740500
     11 C7         -18.9420    15.4810    -2.6860 c6         1 A1L       0.195800
     12 C8         -20.2840    14.7100    -4.6180 c3         1 A1L      -0.099100
     13 C9         -18.9260    15.2440    -4.1920 c6         1 A1L       0.186500
     14 N2         -18.5740    16.4880    -4.8690 n3         1 A1L      -0.726600
     15 C11        -17.6470    15.5820    -7.0050 cd         1 A1L       0.067300
     16 O4         -17.8960    14.2320    -7.0620 os         1 A1L      -0.236000
     17 C12        -16.8370    13.6480    -7.6300 cd         1 A1L       0.296800
     18 C13        -16.5940    11.9850    -3.1920 c6         1 A1L      -0.110900
     19 C14        -15.2840    11.6520    -2.4980 c6         1 A1L       0.155600
     20 O5         -15.0860    10.2590    -2.3860 os         1 A1L      -0.446000
     21 C15        -15.0560     9.6300    -3.6490 c6         1 A1L       0.155600
     22 C16        -16.3550     9.8240    -4.4140 c6         1 A1L      -0.110900
     23 C17        -16.6670    11.3090    -4.5610 c6         1 A1L      -0.081700
     24 C18        -18.0400    11.5640    -5.1700 c3         1 A1L       0.070600
     25 N3         -17.9650    10.3200    -8.5640 nc         1 A1L      -0.660000
     26 C19        -18.8060     9.4660    -7.9520 cc         1 A1L       0.328000
     27 C20        -19.0040     9.8080    -6.6470 cd         1 A1L      -0.216000
     28 N4         -18.2410    10.9260    -6.4600 na         1 A1L      -0.134500
     29 C21        -17.6310    11.1970    -7.6390 cd         1 A1L       0.483300
     30 C22        -16.6640    12.2680    -7.8800 cd         1 A1L      -0.343600
     31 C23        -15.4830    11.9630    -8.4920 cc         1 A1L       0.028600
     32 N5         -14.5410    12.8780    -8.8350 n          1 A1L      -0.282000
     33 C24        -13.3060    12.4300    -9.4680 c3         1 A1L       0.076300
     34 H1         -15.9900    16.8250    -7.6440 ha         1 A1L       0.156000
     35 H2         -16.4620    16.3270    -4.6390 h1         1 A1L       0.050700
     36 H3         -17.0980    17.9520    -4.9110 h1         1 A1L       0.050700
     37 H5         -16.3280    17.5880    -2.5970 h1         1 A1L       0.062200
     38 H4         -18.0470    18.0180    -2.6600 h1         1 A1L       0.062200
     39 H7         -17.9110    16.5860     1.3650 h1         1 A1L       0.101700
     40 H8         -18.1110    17.7740     0.0530 h1         1 A1L       0.101700
     41 H6         -19.2530    16.4120     0.2080 h1         1 A1L       0.101700
     42 H10        -19.7370    16.1950    -2.4340 h1         1 A1L       0.058700
     43 H9         -19.1590    14.5370    -2.1880 h1         1 A1L       0.058700
     44 H11        -20.5580    13.8580    -3.9950 hc         1 A1L       0.046033
     45 H12        -21.0550    15.4740    -4.5060 hc         1 A1L       0.046033
     46 H13        -20.2950    14.3620    -5.6500 hc         1 A1L       0.046033
     47 H14        -18.1600    14.4730    -4.3680 h1         1 A1L       0.040700
     48 H16        -18.4700    17.4750    -6.6800 h1         1 A1L       0.074700
     49 H15        -19.6580    16.1970    -6.6370 h1         1 A1L       0.074700
     50 H17        -16.6830    13.0700    -3.2880 hc         1 A1L       0.054450
     51 H18        -17.4320    11.6500    -2.5710 hc         1 A1L       0.054450
     52 H20        -14.4510    12.1120    -3.0500 h1         1 A1L       0.048450
     53 H19        -15.2710    12.0620    -1.4870 h1         1 A1L       0.048450
     54 H22        -14.8680     8.5690    -3.4740 h1         1 A1L       0.048450
     55 H21        -14.2200    10.0190    -4.2490 h1         1 A1L       0.048450
     56 H24        -17.1740     9.3240    -3.8850 hc         1 A1L       0.054450
     57 H23        -16.2640     9.3410    -5.3910 hc         1 A1L       0.054450
     58 H25        -15.9030    11.7610    -5.2050 hc         1 A1L       0.060700
     59 H27        -18.2170    12.6320    -5.2680 h1         1 A1L       0.067200
     60 H26        -18.8140    11.1780    -4.5050 h1         1 A1L       0.067200
     61 H28        -19.5800     9.3600    -5.8560 h4         1 A1L       0.170000
     62 H29        -15.2460    10.9370    -8.7340 h4         1 A1L       0.221000
     63 H32        -13.3300    11.3500    -9.5640 h1         1 A1L       0.058033
     64 H30        -13.2000    12.8700   -10.4570 h1         1 A1L       0.058033
     65 H31        -12.4460    12.7090    -8.8630 h1         1 A1L       0.058033
     66 C10        -18.6460    16.4570    -6.3230 c3         1 A1L       0.149500
     67 CL1        -19.5100     8.1440    -8.7830 cl         1 A1L      -0.140000
     68 S1         -17.1640    15.7320    -0.7020 s6         1 A1L       1.203100
@<TRIPOS>BOND
     1     1     2 2   
     2     2     3 1   
     3     2    32 1   
     4     3     4 1   
     5     3    17 2   
     6     4    15 2   
     7     4    34 1   
     8     5     6 1   
     9     5    14 1   
    10     5    35 1   
    11     5    36 1   
    12     6    10 1   
    13     6    37 1   
    14     6    38 1   
    15     7    39 1   
    16     7    40 1   
    17     7    41 1   
    18     7    68 1   
    19     8    68 2   
    20     9    68 2   
    21    10    11 1   
    22    10    68 1   
    23    11    13 1   
    24    11    42 1   
    25    11    43 1   
    26    12    13 1   
    27    12    44 1   
    28    12    45 1   
    29    12    46 1   
    30    13    14 1   
    31    13    47 1   
    32    14    66 1   
    33    15    16 1   
    34    15    66 1   
    35    16    17 1   
    36    17    30 1   
    37    18    19 1   
    38    18    23 1   
    39    18    50 1   
    40    18    51 1   
    41    19    20 1   
    42    19    52 1   
    43    19    53 1   
    44    20    21 1   
    45    21    22 1   
    46    21    54 1   
    47    21    55 1   
    48    22    23 1   
    49    22    56 1   
    50    22    57 1   
    51    23    24 1   
    52    23    58 1   
    53    24    28 1   
    54    24    59 1   
    55    24    60 1   
    56    25    26 1   
    57    25    29 2   
    58    26    27 2   
    59    26    67 1   
    60    27    28 1   
    61    27    61 1   
    62    28    29 1   
    63    29    30 1   
    64    30    31 2   
    65    31    32 1   
    66    31    62 1   
    67    32    33 1   
    68    33    63 1   
    69    33    64 1   
    70    33    65 1   
    71    48    66 1   
    72    49    66 1   
@<TRIPOS>SUBSTRUCTURE
     1 A1L         1 TEMP              0 ****  ****    0 ROOT
