@<TRIPOS>MOLECULE
A1M
   54    56     1     0     0
SMALL
abcg2


@<TRIPOS>ATOM
      1 N2          -1.5440     2.6100    -0.2700 n8         1 A1M      -1.007200
      2 CA          -2.3210     1.4770     0.1520 c3         1 A1M       0.103500
      3 CB          -3.7990     1.6390    -0.2430 c3         1 A1M      -0.062400
      4 CG          -4.4280     2.8640     0.3990 c3         1 A1M       0.071600
      5 SD          -6.1770     2.9560    -0.0780 ss         1 A1M      -0.442000
      6 CE          -6.6380     4.4980     0.7400 c3         1 A1M       0.043900
      7 C9          -1.8480     0.1450    -0.4340 c          1 A1M       0.578100
      8 N8          -2.2320    -0.9610     0.3050 ns         1 A1M      -0.627300
      9 S1          -2.2990    -2.5060    -0.3060 s6         1 A1M       1.435500
     10 O1S         -2.8630    -3.2990     0.7570 o          1 A1M      -0.537500
     11 O2S         -2.8720    -2.4960    -1.6230 o          1 A1M      -0.537500
     12 O5          -0.7830    -2.8870    -0.5450 os         1 A1M      -0.544700
     13 C5           0.0610    -3.2040     0.5780 c3         1 A1M       0.189600
     14 C4           1.4690    -3.2690     0.0250 c5         1 A1M       0.164300
     15 O4           1.8350    -2.0180    -0.5470 os         1 A1M      -0.421000
     16 C3           2.5070    -3.5630     1.1020 c5         1 A1M       0.110300
     17 O3           3.5920    -4.2110     0.4950 oh         1 A1M      -0.697000
     18 C2           2.8920    -2.1470     1.5410 c5         1 A1M       0.084300
     19 O2           4.1660    -2.0350     2.0990 oh         1 A1M      -0.691000
     20 C1           2.8430    -1.4000     0.2080 c5         1 A1M       0.310300
     21 N9           2.5530     0.0050     0.3240 na         1 A1M      -0.283300
     22 C8           1.4630     0.5820     0.9180 cc         1 A1M       0.405700
     23 N7           1.4160     1.8710     0.7660 nd         1 A1M      -0.571100
     24 C7           2.5290     2.1720     0.0210 ca         1 A1M      -0.104600
     25 C6           3.0440     3.3790    -0.4850 ca         1 A1M       0.454900
     26 N6           2.4550     4.5570    -0.2810 nv         1 A1M      -1.064900
     27 N1           4.1720     3.3240    -1.2010 nb         1 A1M      -0.299000
     28 C11          4.7540     2.1450    -1.4040 ca         1 A1M       0.189900
     29 N3           4.3680     0.9530    -0.9810 nb         1 A1M      -0.214000
     30 C10          3.2460     1.0240    -0.2710 ca         1 A1M       0.153500
     31 O1          -1.2350     0.0390    -1.4660 o          1 A1M      -0.512100
     32 H1          -0.5960     2.5430     0.0850 hn         1 A1M       0.428000
     33 H2          -1.4860     2.6430    -1.2810 hn         1 A1M       0.428000
     34 H4          -2.2640     1.4110     1.2450 h1         1 A1M       0.067700
     35 H5          -3.8700     1.7090    -1.3320 hc         1 A1M       0.061200
     36 H6          -4.3580     0.7480     0.0540 hc         1 A1M       0.061200
     37 H7          -4.3540     2.8040     1.4870 h1         1 A1M       0.065700
     38 H8          -3.9200     3.7730     0.0760 h1         1 A1M       0.065700
     39 H9          -6.0590     5.3360     0.3560 h1         1 A1M       0.060033
     40 H10         -7.6920     4.6790     0.5350 h1         1 A1M       0.060033
     41 H11         -6.5010     4.4280     1.8190 h1         1 A1M       0.060033
     42 H12         -2.7070    -0.8370     1.1930 hn         1 A1M       0.343500
     43 H13         -0.0410    -2.4440     1.3580 h1         1 A1M       0.051200
     44 H14         -0.2230    -4.1740     0.9900 h1         1 A1M       0.051200
     45 H15          1.5040    -4.0360    -0.7550 h1         1 A1M       0.118700
     46 H16          2.0900    -4.1510     1.9300 h1         1 A1M       0.056700
     47 H17          4.3650    -4.0830     1.0570 ho         1 A1M       0.526000
     48 H18          2.1200    -1.7630     2.2190 h1         1 A1M       0.046700
     49 H19          4.1120    -2.2160     3.0430 ho         1 A1M       0.517000
     50 H20          3.8120    -1.4670    -0.2970 h2         1 A1M       0.129700
     51 H21          0.7260    -0.0010     1.4510 h5         1 A1M       0.053800
     52 H22          1.6080     4.6320     0.2540 hn         1 A1M       0.508500
     53 H23          2.8560     5.3970    -0.6620 hn         1 A1M       0.508500
     54 H24          5.6640     2.1700    -1.9940 h5         1 A1M       0.050100
@<TRIPOS>BOND
     1     1     2 1   
     2     1    32 1   
     3     1    33 1   
     4     2     3 1   
     5     2     7 1   
     6     2    34 1   
     7     3     4 1   
     8     3    35 1   
     9     3    36 1   
    10     4     5 1   
    11     4    37 1   
    12     4    38 1   
    13     5     6 1   
    14     6    39 1   
    15     6    40 1   
    16     6    41 1   
    17     7     8 1   
    18     7    31 2   
    19     8     9 1   
    20     8    42 1   
    21     9    10 2   
    22     9    11 2   
    23     9    12 1   
    24    12    13 1   
    25    13    14 1   
    26    13    43 1   
    27    13    44 1   
    28    14    15 1   
    29    14    16 1   
    30    14    45 1   
    31    15    20 1   
    32    16    17 1   
    33    16    18 1   
    34    16    46 1   
    35    17    47 1   
    36    18    19 1   
    37    18    20 1   
    38    18    48 1   
    39    19    49 1   
    40    20    21 1   
    41    20    50 1   
    42    21    22 1   
    43    21    30 1   
    44    22    23 2   
    45    22    51 1   
    46    23    24 1   
    47    24    25 ar  
    48    24    30 ar  
    49    25    26 1   
    50    25    27 ar  
    51    26    52 1   
    52    26    53 1   
    53    27    28 ar  
    54    28    29 ar  
    55    28    54 1   
    56    29    30 ar  
@<TRIPOS>SUBSTRUCTURE
     1 A1M         1 TEMP              0 ****  ****    0 ROOT
