@<TRIPOS>MOLECULE
A1M
   93    95     1     0     0
SMALL
abcg2


@<TRIPOS>ATOM
      1 C1          20.3420     0.1870    24.3950 c          1 A1M       0.570300
      2 C10         19.5670    -6.9870    21.0560 c3         1 A1M      -0.084400
      3 C11         20.7840    -7.8750    21.3020 c3         1 A1M      -0.089100
      4 C12         21.2740     1.2920    23.9350 c3         1 A1M      -0.160700
      5 C13         20.4500     2.3730    23.2150 c3         1 A1M      -0.083100
      6 C14         22.3980     0.7560    23.0280 c3         1 A1M      -0.058400
      7 C15         23.5950     0.1640    23.7940 c3         1 A1M      -0.054700
      8 C16         24.5170     1.3020    24.2590 c3         1 A1M      -0.080400
      9 C17         25.5190     0.9050    25.3390 c3         1 A1M      -0.090100
     10 C18         24.3810    -0.8820    22.9660 c3         1 A1M       0.178300
     11 C19         25.1850    -0.9300    20.7170 c6         1 A1M       0.392300
     12 C2          19.7150    -0.6220    23.3220 ce         1 A1M      -0.302200
     13 C20         24.6680    -1.0740    19.2950 c6         1 A1M       0.148300
     14 C21         25.8530    -1.2940    18.3510 c6         1 A1M       0.139500
     15 C24         26.8670    -0.1580    18.5060 c6         1 A1M      -0.131400
     16 C25         27.2720    -0.0290    19.9720 c6         1 A1M       0.182300
     17 C26         28.1900     1.1440    20.2390 c3         1 A1M      -0.087100
     18 C27         24.1410    -2.3630    23.3060 c3         1 A1M      -0.076700
     19 C28         24.8140    -2.7210    24.6340 c3         1 A1M      -0.081100
     20 C29         22.6760    -2.8280    23.2500 c3         1 A1M       0.192300
     21 C3          18.9080    -1.6590    23.5590 c2         1 A1M      -0.141200
     22 C30         22.6380    -4.3360    22.9080 c3         1 A1M      -0.170400
     23 C31         21.3250    -5.0220    23.1850 c          1 A1M       0.590100
     24 C4          18.3540    -2.5350    22.5080 cx         1 A1M       0.123200
     25 C5          18.6010    -2.1540    21.0740 c3         1 A1M      -0.074100
     26 C6          18.0870    -3.9360    22.9070 cx         1 A1M       0.110300
     27 C7          18.0810    -5.1110    21.9570 c3         1 A1M      -0.060700
     28 C8          16.8330    -5.9610    22.2270 c3         1 A1M      -0.088100
     29 C9          19.3520    -5.9430    22.1420 c3         1 A1M       0.172300
     30 N1          25.3500    -1.5820    17.0030 n3         1 A1M      -0.742600
     31 O1          20.1100    -0.0110    25.5790 o          1 A1M      -0.521100
     32 O2          17.0060    -3.0020    22.8140 op         1 A1M      -0.438000
     33 O3          20.5230    -5.0630    22.1090 os         1 A1M      -0.462100
     34 O4          24.1230    -0.6510    21.5640 os         1 A1M      -0.442000
     35 O5          23.7740    -2.1760    19.2090 oh         1 A1M      -0.717000
     36 O6          26.0990     0.1580    20.7850 os         1 A1M      -0.497000
     37 O7          22.0580    -2.5490    24.5060 oh         1 A1M      -0.658000
     38 O8          21.0350    -5.5010    24.2600 o          1 A1M      -0.482000
     39 H12         18.6710    -7.6070    21.0000 hc         1 A1M       0.051200
     40 H13         19.6570    -6.4730    20.0950 hc         1 A1M       0.051200
     41 H14         20.8850    -8.6150    20.5070 hc         1 A1M       0.037367
     42 H15         21.7050    -7.2900    21.3320 hc         1 A1M       0.037367
     43 H16         20.6910    -8.4090    22.2500 hc         1 A1M       0.037367
     44 H17         21.7010     1.7280    24.8400 hc         1 A1M       0.075700
     45 H18         21.0950     3.2220    22.9850 hc         1 A1M       0.039700
     46 H19         20.0370     2.0000    22.2760 hc         1 A1M       0.039700
     47 H20         19.6250     2.7260    23.8370 hc         1 A1M       0.039700
     48 H21         21.9890     0.0290    22.3310 hc         1 A1M       0.054200
     49 H22         22.7550     1.5790    22.4060 hc         1 A1M       0.054200
     50 H23         23.2130    -0.3450    24.6810 hc         1 A1M       0.077700
     51 H24         25.0450     1.6980    23.3840 hc         1 A1M       0.044700
     52 H25         23.8990     2.1210    24.6380 hc         1 A1M       0.044700
     53 H26         26.1340     1.7590    25.6320 hc         1 A1M       0.032367
     54 H27         25.0030     0.5400    26.2310 hc         1 A1M       0.032367
     55 H28         26.1930     0.1150    25.0020 hc         1 A1M       0.032367
     56 H29         25.4450    -0.7050    23.1300 h1         1 A1M       0.051700
     57 H30         25.7040    -1.8520    21.0170 h2         1 A1M       0.025700
     58 H1          19.9660    -0.3610    22.3050 ha         1 A1M       0.189000
     59 H31         24.1450    -0.1420    19.0460 h1         1 A1M       0.061700
     60 H33         26.3340    -2.2200    18.6840 h1         1 A1M       0.059700
     61 H34         24.3340    -0.7610    15.3760 h1         1 A1M       0.035700
     62 H35         24.1520     0.1450    16.8800 h1         1 A1M       0.035700
     63 H36         25.6610     0.2590    15.9540 h1         1 A1M       0.035700
     64 H37         25.8000    -2.6590    15.2710 h1         1 A1M       0.035700
     65 H38         27.1920    -1.7820    15.9290 h1         1 A1M       0.035700
     66 H39         26.5950    -3.2460    16.7410 h1         1 A1M       0.035700
     67 H40         27.7530    -0.3530    17.8980 hc         1 A1M       0.057700
     68 H41         26.4370     0.7910    18.1780 hc         1 A1M       0.057700
     69 H42         27.7610    -0.9600    20.2910 h1         1 A1M       0.031700
     70 H43         28.4470     1.1990    21.2990 hc         1 A1M       0.047700
     71 H44         29.1120     1.0360    19.6660 hc         1 A1M       0.047700
     72 H45         27.7070     2.0790    19.9470 hc         1 A1M       0.047700
     73 H46         24.6580    -2.9210    22.5200 hc         1 A1M       0.048700
     74 H47         24.6850    -3.7760    24.8750 hc         1 A1M       0.041033
     75 H48         25.8840    -2.5190    24.5730 hc         1 A1M       0.041033
     76 H49         24.4060    -2.1400    25.4590 hc         1 A1M       0.041033
     77 H50         22.1470    -2.2880    22.4600 h1         1 A1M       0.054700
     78 H2          18.6490    -1.9180    24.5810 ha         1 A1M       0.203000
     79 H52         22.9000    -4.4510    21.8570 hc         1 A1M       0.079200
     80 H53         23.3790    -4.8570    23.5140 hc         1 A1M       0.079200
     81 H3          18.0430    -2.7970    20.3990 hc         1 A1M       0.053033
     82 H4          18.2890    -1.1230    20.8970 hc         1 A1M       0.053033
     83 H5          19.6620    -2.2380    20.8360 hc         1 A1M       0.053033
     84 H6          18.3290    -4.2040    23.9340 h1         1 A1M       0.092700
     85 H7          18.0460    -4.7530    20.9280 hc         1 A1M       0.068700
     86 H10         16.7470    -6.7840    21.5190 hc         1 A1M       0.044700
     87 H8          16.8600    -6.3780    23.2370 hc         1 A1M       0.044700
     88 H9          15.9390    -5.3440    22.1370 hc         1 A1M       0.044700
     89 H11         19.3320    -6.4140    23.1240 h1         1 A1M       0.075700
     90 H32         23.8390    -2.4590    18.2800 ho         1 A1M       0.527000
     91 H51         21.1050    -2.4740    24.3720 ho         1 A1M       0.447000
     92 C22         24.8560    -0.4200    16.2710 c3         1 A1M       0.154100
     93 C23         26.2890    -2.3520    16.1970 c3         1 A1M       0.154100
@<TRIPOS>BOND
     1     1     4 1   
     2     1    12 1   
     3     1    31 2   
     4     2     3 1   
     5     2    29 1   
     6     2    39 1   
     7     2    40 1   
     8     3    41 1   
     9     3    42 1   
    10     3    43 1   
    11     4     5 1   
    12     4     6 1   
    13     4    44 1   
    14     5    45 1   
    15     5    46 1   
    16     5    47 1   
    17     6     7 1   
    18     6    48 1   
    19     6    49 1   
    20     7     8 1   
    21     7    10 1   
    22     7    50 1   
    23     8     9 1   
    24     8    51 1   
    25     8    52 1   
    26     9    53 1   
    27     9    54 1   
    28     9    55 1   
    29    10    18 1   
    30    10    34 1   
    31    10    56 1   
    32    11    13 1   
    33    11    34 1   
    34    11    36 1   
    35    11    57 1   
    36    12    21 2   
    37    12    58 1   
    38    13    14 1   
    39    13    35 1   
    40    13    59 1   
    41    14    15 1   
    42    14    30 1   
    43    14    60 1   
    44    15    16 1   
    45    15    67 1   
    46    15    68 1   
    47    16    17 1   
    48    16    36 1   
    49    16    69 1   
    50    17    70 1   
    51    17    71 1   
    52    17    72 1   
    53    18    19 1   
    54    18    20 1   
    55    18    73 1   
    56    19    74 1   
    57    19    75 1   
    58    19    76 1   
    59    20    22 1   
    60    20    37 1   
    61    20    77 1   
    62    21    24 1   
    63    21    78 1   
    64    22    23 1   
    65    22    79 1   
    66    22    80 1   
    67    23    33 1   
    68    23    38 2   
    69    24    25 1   
    70    24    26 1   
    71    24    32 1   
    72    25    81 1   
    73    25    82 1   
    74    25    83 1   
    75    26    27 1   
    76    26    32 1   
    77    26    84 1   
    78    27    28 1   
    79    27    29 1   
    80    27    85 1   
    81    28    86 1   
    82    28    87 1   
    83    28    88 1   
    84    29    33 1   
    85    29    89 1   
    86    30    92 1   
    87    30    93 1   
    88    35    90 1   
    89    37    91 1   
    90    61    92 1   
    91    62    92 1   
    92    63    92 1   
    93    64    93 1   
    94    65    93 1   
    95    66    93 1   
@<TRIPOS>SUBSTRUCTURE
     1 A1M         1 TEMP              0 ****  ****    0 ROOT
