@<TRIPOS>MOLECULE
A1M
   92    94     1     0     0
SMALL
abcg2


@<TRIPOS>ATOM
      1 C10         18.9450    -7.1660    22.0930 c3         1 A1M      -0.083400
      2 C9          19.0930    -5.6640    22.2850 c3         1 A1M       0.179300
      3 C8          17.0170    -5.1510    20.9190 c3         1 A1M      -0.087100
      4 C7          18.4930    -4.8100    21.1650 c3         1 A1M      -0.062700
      5 N1          24.3550    -1.4510    16.8920 n3         1 A1M      -0.742600
      6 C1          21.2110     0.2650    23.3680 c          1 A1M       0.572300
      7 C2          21.0590    -0.7390    22.2850 ce         1 A1M      -0.296200
      8 C3          19.8630    -1.2420    21.9760 c2         1 A1M      -0.148200
      9 C4          19.6290    -2.3920    21.0750 cx         1 A1M       0.132200
     10 C5          20.7370    -2.7890    20.1410 c3         1 A1M      -0.072100
     11 C6          18.5860    -3.3430    21.5250 cx         1 A1M       0.100300
     12 O1          20.3810     1.1400    23.5640 o          1 A1M      -0.523100
     13 C11         19.5860    -7.9800    23.2150 c3         1 A1M      -0.090100
     14 C12         22.4210     0.0590    24.2600 c3         1 A1M      -0.168700
     15 C13         22.3580     0.8900    25.5360 c3         1 A1M      -0.077100
     16 C14         23.7400     0.2900    23.4850 c3         1 A1M      -0.061400
     17 C15         24.8830    -0.6720    23.8830 c3         1 A1M      -0.057700
     18 C16         26.2390     0.0670    23.9750 c3         1 A1M      -0.205400
     19 C17         26.3110     1.0280    25.1180 c          1 A1M       0.570900
     20 C18         25.0560    -1.9080    22.9340 c3         1 A1M       0.184300
     21 C19         25.1260    -1.3650    20.5930 c6         1 A1M       0.398300
     22 C20         24.3280    -1.6320    19.3260 c6         1 A1M       0.147300
     23 C21         25.0830    -1.0850    18.1120 c6         1 A1M       0.141500
     24 C23         25.2080    -1.4800    15.7110 c3         1 A1M       0.152600
     25 C24         25.4250     0.3920    18.3200 c6         1 A1M      -0.133400
     26 C25         26.1890     0.5530    19.6310 c6         1 A1M       0.183300
     27 C26         26.5010     1.9940    19.9760 c3         1 A1M      -0.088100
     28 C27         24.6370    -3.2770    23.4980 c3         1 A1M      -0.057700
     29 C28         25.4830    -3.6890    24.7010 c3         1 A1M      -0.078100
     30 C29         23.1210    -3.4000    23.7400 c3         1 A1M       0.183300
     31 C30         22.5820    -4.7700    23.3090 c3         1 A1M      -0.180400
     32 C31         21.0790    -4.8290    23.4010 c          1 A1M       0.599100
     33 O2          18.2890    -2.3880    20.5000 op         1 A1M      -0.441000
     34 O3          20.5320    -5.3920    22.3280 os         1 A1M      -0.451100
     35 O4          27.1740     1.0100    25.9710 o          1 A1M      -0.523100
     36 O5          24.3630    -1.7550    21.6860 os         1 A1M      -0.454000
     37 O6          24.1260    -3.0300    19.1730 oh         1 A1M      -0.719000
     38 O7          25.4040     0.0220    20.7130 os         1 A1M      -0.503000
     39 O8          22.8170    -3.1360    25.1110 oh         1 A1M      -0.676000
     40 O9          20.4440    -4.4040    24.3500 o          1 A1M      -0.516000
     41 H12         17.8800    -7.3960    22.0470 hc         1 A1M       0.053200
     42 H13         19.3750    -7.4430    21.1260 hc         1 A1M       0.053200
     43 H11         18.6700    -5.3660    23.2450 h1         1 A1M       0.074700
     44 H10         16.9010    -6.1560    20.5190 hc         1 A1M       0.044700
     45 H8          16.4420    -5.0780    21.8450 hc         1 A1M       0.044700
     46 H9          16.5930    -4.4500    20.1990 hc         1 A1M       0.044700
     47 H7          19.0550    -5.0040    20.2500 hc         1 A1M       0.074700
     48 H1          21.9630    -1.1520    21.8590 ha         1 A1M       0.206000
     49 H2          18.9760    -0.8470    22.4610 ha         1 A1M       0.196000
     50 H3          20.4300    -3.6030    19.4890 hc         1 A1M       0.053700
     51 H4          21.0250    -1.9380    19.5220 hc         1 A1M       0.053700
     52 H5          21.6170    -3.1100    20.6970 hc         1 A1M       0.053700
     53 H6          18.1050    -3.1090    22.4740 h1         1 A1M       0.086700
     54 H14         19.4200    -9.0470    23.0530 hc         1 A1M       0.038700
     55 H15         20.6630    -7.8140    23.2670 hc         1 A1M       0.038700
     56 H16         19.1550    -7.7160    24.1830 hc         1 A1M       0.038700
     57 H17         22.3830    -0.9980    24.5390 hc         1 A1M       0.084700
     58 H18         23.2210     0.6670    26.1660 hc         1 A1M       0.040033
     59 H19         22.3720     1.9570    25.3060 hc         1 A1M       0.040033
     60 H20         21.4550     0.6760    26.1090 hc         1 A1M       0.040033
     61 H21         23.5880     0.2180    22.4130 hc         1 A1M       0.057200
     62 H22         24.0440     1.3210    23.6670 hc         1 A1M       0.057200
     63 H23         24.6640    -1.0630    24.8780 hc         1 A1M       0.071700
     64 H24         27.0600    -0.6430    24.0830 hc         1 A1M       0.070700
     65 H25         26.3900     0.6270    23.0450 hc         1 A1M       0.070700
     66 H26         25.5130     1.7920    25.1710 h4         1 A1M      -0.010800
     67 H27         26.1200    -1.9940    22.7040 h1         1 A1M       0.039700
     68 H28         26.0740    -1.9240    20.5670 h2         1 A1M       0.031700
     69 H29         23.3660    -1.1190    19.4410 h1         1 A1M       0.059700
     70 H31         26.0260    -1.6410    18.0670 h1         1 A1M       0.061700
     71 H32         22.5800    -1.1520    15.8370 h1         1 A1M       0.036867
     72 H33         22.5090    -0.6620    17.5310 h1         1 A1M       0.036867
     73 H34         23.3490     0.3600    16.3500 h1         1 A1M       0.036867
     74 H35         24.6480    -1.8970    14.8720 h1         1 A1M       0.036867
     75 H36         25.5640    -0.4810    15.4150 h1         1 A1M       0.036867
     76 H37         26.0760    -2.1140    15.8980 h1         1 A1M       0.036867
     77 H38         26.0350     0.7630    17.4940 hc         1 A1M       0.060200
     78 H39         24.5180     1.0000    18.3670 hc         1 A1M       0.060200
     79 H40         27.1230    -0.0220    19.5720 h1         1 A1M       0.033700
     80 H41         27.0460     2.0530    20.9200 hc         1 A1M       0.048367
     81 H42         27.1140     2.4430    19.1930 hc         1 A1M       0.048367
     82 H43         25.5790     2.5720    20.0690 hc         1 A1M       0.048367
     83 H44         24.8700    -3.9690    22.6850 hc         1 A1M       0.056700
     84 H45         25.2150    -4.6920    25.0360 hc         1 A1M       0.042367
     85 H46         26.5400    -3.6940    24.4280 hc         1 A1M       0.042367
     86 H47         25.3510    -3.0130    25.5450 hc         1 A1M       0.042367
     87 H48         22.6190    -2.6600    23.1150 h1         1 A1M       0.051700
     88 H50         22.8900    -4.9870    22.2880 hc         1 A1M       0.086200
     89 H51         22.9860    -5.5520    23.9610 hc         1 A1M       0.086200
     90 H30         23.9900    -3.1470    18.2160 ho         1 A1M       0.530000
     91 H49         21.8780    -3.3550    25.2260 ho         1 A1M       0.472000
     92 C22         23.1410    -0.6790    16.6450 c3         1 A1M       0.152600
@<TRIPOS>BOND
     1     1     2 1   
     2     1    13 1   
     3     1    41 1   
     4     1    42 1   
     5     2     4 1   
     6     2    34 1   
     7     2    43 1   
     8     3     4 1   
     9     3    44 1   
    10     3    45 1   
    11     3    46 1   
    12     4    11 1   
    13     4    47 1   
    14     5    23 1   
    15     5    24 1   
    16     5    92 1   
    17     6     7 1   
    18     6    12 2   
    19     6    14 1   
    20     7     8 2   
    21     7    48 1   
    22     8     9 1   
    23     8    49 1   
    24     9    10 1   
    25     9    11 1   
    26     9    33 1   
    27    10    50 1   
    28    10    51 1   
    29    10    52 1   
    30    11    33 1   
    31    11    53 1   
    32    13    54 1   
    33    13    55 1   
    34    13    56 1   
    35    14    15 1   
    36    14    16 1   
    37    14    57 1   
    38    15    58 1   
    39    15    59 1   
    40    15    60 1   
    41    16    17 1   
    42    16    61 1   
    43    16    62 1   
    44    17    18 1   
    45    17    20 1   
    46    17    63 1   
    47    18    19 1   
    48    18    64 1   
    49    18    65 1   
    50    19    35 2   
    51    19    66 1   
    52    20    28 1   
    53    20    36 1   
    54    20    67 1   
    55    21    22 1   
    56    21    36 1   
    57    21    38 1   
    58    21    68 1   
    59    22    23 1   
    60    22    37 1   
    61    22    69 1   
    62    23    25 1   
    63    23    70 1   
    64    24    74 1   
    65    24    75 1   
    66    24    76 1   
    67    25    26 1   
    68    25    77 1   
    69    25    78 1   
    70    26    27 1   
    71    26    38 1   
    72    26    79 1   
    73    27    80 1   
    74    27    81 1   
    75    27    82 1   
    76    28    29 1   
    77    28    30 1   
    78    28    83 1   
    79    29    84 1   
    80    29    85 1   
    81    29    86 1   
    82    30    31 1   
    83    30    39 1   
    84    30    87 1   
    85    31    32 1   
    86    31    88 1   
    87    31    89 1   
    88    32    34 1   
    89    32    40 2   
    90    37    90 1   
    91    39    91 1   
    92    71    92 1   
    93    72    92 1   
    94    73    92 1   
@<TRIPOS>SUBSTRUCTURE
     1 A1M         1 TEMP              0 ****  ****    0 ROOT
