@<TRIPOS>MOLECULE
A1M
   37    39     1     0     0
SMALL
abcg2


@<TRIPOS>ATOM
      1 C11         14.3210    -9.8140   -14.2530 c5         1 A1M       0.194300
      2 C13         14.6530    -7.3880   -13.1480 c5         1 A1M       0.043300
      3 C14         14.3420    -6.6330   -11.8790 c3         1 A1M       0.167800
      4 C18         13.4690    -7.5220   -14.1070 c5         1 A1M       0.177300
      5 C20         13.8470    -8.6160   -15.1060 c5         1 A1M       0.127300
      6 C02         10.9280   -13.3160   -14.6840 ca         1 A1M       0.311000
      7 C03         11.4150   -13.6670   -15.9480 ca         1 A1M       0.242900
      8 C05         13.1150   -12.0990   -15.9550 ca         1 A1M       0.274900
      9 C06         12.7080   -11.6780   -14.6910 ca         1 A1M      -0.073200
     10 C07         11.6110   -12.2720   -14.0370 ca         1 A1M      -0.096800
     11 C08         11.4810   -11.5930   -12.7720 cc         1 A1M      -0.027900
     12 C09         12.4810   -10.6410   -12.7170 cd         1 A1M      -0.122100
     13 C22         10.5410   -11.8290   -11.7510 cg         1 A1M       0.304700
     14 N01          9.8830   -13.9970   -14.0930 nv         1 A1M      -1.057000
     15 N04         12.4610   -13.0870   -16.5570 nb         1 A1M      -0.593000
     16 N10         13.2200   -10.6890   -13.8560 na         1 A1M      -0.092700
     17 N15         13.2870    -7.3580   -11.1040 n2         1 A1M      -0.075200
     18 N16         12.7230    -6.9660   -10.1760 n1         1 A1M       0.227000
     19 N17         11.9790    -6.6110    -9.3360 n2         1 A1M      -0.208400
     20 N23          9.7600   -12.0260   -10.9210 n1         1 A1M      -0.447000
     21 O19         13.2100    -6.2590   -14.6800 oh         1 A1M      -0.634000
     22 O21         14.8960    -8.1350   -15.9190 oh         1 A1M      -0.626000
     23 S12         15.2370    -9.0970   -12.8380 ss         1 A1M      -0.345000
     24 H111        15.0180   -10.4200   -14.8260 h2         1 A1M       0.124700
     25 H1          15.4480    -6.8300   -13.6440 h1         1 A1M       0.159700
     26 H141        13.9520    -5.6360   -12.0920 h1         1 A1M       0.120700
     27 H142        15.2010    -6.5590   -11.2120 h1         1 A1M       0.120700
     28 H181        12.5940    -7.8750   -13.5500 h1         1 A1M       0.044700
     29 H201        12.9820    -8.9120   -15.7060 h1         1 A1M       0.087700
     30 H051        13.9480   -11.6480   -16.4800 h4         1 A1M       0.019100
     31 H091        12.7120    -9.9520   -11.9240 h4         1 A1M       0.210000
     32 H012         9.3270   -13.4860   -13.4240 hn         1 A1M       0.468000
     33 H011         9.3160   -14.5500   -14.7200 hn         1 A1M       0.468000
     34 H2          12.2740    -6.7960    -8.3650 hn         1 A1M       0.527400
     35 H191        12.3020    -6.2440   -15.0100 ho         1 A1M       0.472000
     36 H211        15.0460    -8.7650   -16.6360 ho         1 A1M       0.470000
     37 H031        10.9210   -14.4660   -16.4930 h4         1 A1M       0.034100
@<TRIPOS>BOND
     1     1     5 1   
     2     1    16 1   
     3     1    23 1   
     4     1    24 1   
     5     2     3 1   
     6     2     4 1   
     7     2    23 1   
     8     2    25 1   
     9     3    17 1   
    10     3    26 1   
    11     3    27 1   
    12     4     5 1   
    13     4    21 1   
    14     4    28 1   
    15     5    22 1   
    16     5    29 1   
    17     6     7 ar  
    18     6    10 ar  
    19     6    14 1   
    20     7    15 ar  
    21     7    37 1   
    22     8     9 ar  
    23     8    15 ar  
    24     8    30 1   
    25     9    10 ar  
    26     9    16 1   
    27    10    11 1   
    28    11    12 2   
    29    11    13 1   
    30    12    16 1   
    31    12    31 1   
    32    13    20 3   
    33    14    32 1   
    34    14    33 1   
    35    17    18 2   
    36    18    19 2   
    37    19    34 1   
    38    21    35 1   
    39    22    36 1   
@<TRIPOS>SUBSTRUCTURE
     1 A1M         1 TEMP              0 ****  ****    0 ROOT
