@<TRIPOS>MOLECULE
A5L
   34    36     1     0     0
SMALL
abcg2


@<TRIPOS>ATOM
      1 F           -2.6560    -3.6750    -7.3640 f          1 A5L      -0.202000
      2 P           -0.3840    -6.1230    -9.4600 p5         1 A5L       1.270900
      3 N1          -2.6750    -4.4510    -1.5690 nb         1 A5L      -0.331000
      4 C2          -3.8320    -4.3350    -2.2160 ca         1 A5L       0.127900
      5 N3          -4.1010    -4.6250    -3.4770 nb         1 A5L      -0.215000
      6 C4          -3.0280    -5.0870    -4.1150 ca         1 A5L       0.081500
      7 C5          -1.7600    -5.2580    -3.5820 ca         1 A5L      -0.063600
      8 C6          -1.6050    -4.9130    -2.2280 ca         1 A5L       0.417900
      9 N6          -0.4370    -5.0130    -1.5860 nv         1 A5L      -1.083900
     10 N7          -0.8960    -5.7450    -4.5280 nc         1 A5L      -0.603100
     11 C8          -1.6150    -5.8620    -5.6090 cd         1 A5L       0.506700
     12 N9          -2.9210    -5.4870    -5.4150 na         1 A5L      -0.284300
     13 C1          -3.9680    -5.4220    -6.4010 c5         1 A5L       0.301300
     14 C7          -3.9490    -4.1310    -7.2230 c5         1 A5L       0.170300
     15 C3          -4.5430    -4.5880    -8.5480 c5         1 A5L       0.105300
     16 O3          -5.9340    -4.3970    -8.4180 oh         1 A5L      -0.750000
     17 C9          -4.1640    -6.0790    -8.6290 c5         1 A5L       0.124300
     18 O4          -3.8070    -6.4710    -7.3020 os         1 A5L      -0.433000
     19 C10         -3.0470    -6.4020    -9.6050 c3         1 A5L       0.255600
     20 O5          -1.9850    -5.5160    -9.4860 os         1 A5L      -0.577400
     21 OP1         -0.2600    -6.9580   -10.7300 o          1 A5L      -0.911500
     22 OP2          0.4100    -4.8260    -9.4380 o          1 A5L      -0.911500
     23 OP3         -0.3070    -6.9510    -8.1690 o          1 A5L      -0.911500
     24 H2          -4.6590    -3.9530    -1.6260 h5         1 A5L       0.014100
     25 H8          -1.2430    -6.2380    -6.5660 h5         1 A5L       0.198800
     26 HN6         -0.3900    -4.8390    -0.5970 hn         1 A5L       0.490500
     27 HN6A         0.3570    -5.4410    -2.0290 hn         1 A5L       0.490500
     28 H5          -2.7600    -7.4510    -9.4480 h1         1 A5L       0.002700
     29 H5'A        -3.4910    -6.3610   -10.6110 h1         1 A5L       0.002700
     30 H1          -4.9220    -5.4870    -5.8620 h2         1 A5L       0.060700
     31 H6          -4.5370    -3.3400    -6.7560 h1         1 A5L       0.054700
     32 H3          -4.1320    -4.0170    -9.3880 h1         1 A5L       0.099700
     33 H4          -5.0440    -6.6610    -8.9320 h1         1 A5L       0.011700
     34 HO3         -6.3690    -4.7690    -9.1920 ho         1 A5L       0.493000
@<TRIPOS>BOND
     1     1    14 1   
     2     2    20 1   
     3     2    21 1   
     4     2    22 1   
     5     2    23 1   
     6     3     4 ar  
     7     3     8 ar  
     8     4     5 ar  
     9     4    24 1   
    10     5     6 ar  
    11     6     7 ar  
    12     6    12 1   
    13     7     8 ar  
    14     7    10 1   
    15     8     9 1   
    16     9    26 1   
    17     9    27 1   
    18    10    11 2   
    19    11    12 1   
    20    11    25 1   
    21    12    13 1   
    22    13    14 1   
    23    13    18 1   
    24    13    30 1   
    25    14    15 1   
    26    14    31 1   
    27    15    16 1   
    28    15    17 1   
    29    15    32 1   
    30    16    34 1   
    31    17    18 1   
    32    17    19 1   
    33    17    33 1   
    34    19    20 1   
    35    19    28 1   
    36    19    29 1   
@<TRIPOS>SUBSTRUCTURE
     1 A5L         1 TEMP              0 ****  ****    0 ROOT
