@<TRIPOS>MOLECULE
AAM
   35    37     1     0     0
SMALL
abcg2


@<TRIPOS>ATOM
      1 C8A         55.4780    41.5000    12.4140 cc         1 AAM       0.411700
      2 N9A         55.8030    42.0290    13.5720 nd         1 AAM      -0.683700
      3 C4A         57.1760    42.1100    13.5420 ca         1 AAM       0.237000
      4 C5A         57.6700    41.6230    12.3230 ca         1 AAM      -0.221200
      5 N7A         56.5390    41.2350    11.6010 na         1 AAM      -0.148600
      6 N3A         57.9480    42.6130    14.5220 nb         1 AAM      -0.220000
      7 C2A         59.2360    42.6340    14.2130 ca         1 AAM       0.144900
      8 N1A         59.8090    42.2840    13.0580 nb         1 AAM      -0.324000
      9 C6A         59.0430    41.8110    12.0550 ca         1 AAM       0.441900
     10 N6A         59.6310    41.5800    10.8740 nv         1 AAM      -1.037900
     11 P           59.1940    39.3750     5.9550 p5         1 AAM       1.264900
     12 O1P         59.1750    37.9570     5.3970 o          1 AAM      -0.923500
     13 O2P         59.0380    40.4680     4.9100 o          1 AAM      -0.923500
     14 O3P         60.3160    39.6150     6.9590 o          1 AAM      -0.923500
     15 O6          57.7540    39.5350     6.8180 os         1 AAM      -0.563400
     16 C5          57.4890    38.6510     7.8850 c3         1 AAM       0.240600
     17 C4          58.0020    39.1800     9.2170 c5         1 AAM       0.112300
     18 O5          57.4060    40.4790     9.5230 os         1 AAM      -0.430000
     19 C3          57.6460    38.2910    10.3930 c5         1 AAM       0.138300
     20 O3          58.6070    38.4560    11.4270 oh         1 AAM      -0.705000
     21 C2          56.2820    38.8380    10.8230 c5         1 AAM       0.070300
     22 O2          56.0450    38.5940    12.1910 oh         1 AAM      -0.716000
     23 C1          56.3570    40.3520    10.4450 c5         1 AAM       0.301300
     24 H8A         54.4730    41.2670    12.1000 h5         1 AAM       0.042800
     25 H2A         59.9130    42.9980    14.9770 h5         1 AAM       0.020100
     26 HN61        60.5970    41.8280    10.7550 hn         1 AAM       0.530000
     27 HN62        59.0680    41.3200    10.0820 hn         1 AAM       0.530000
     28 H5'1        56.4070    38.5040     7.9350 h1         1 AAM       0.000200
     29 H5'2        57.9490    37.6750     7.7110 h1         1 AAM       0.000200
     30 H4          59.0740    39.3420     9.1410 h1         1 AAM       0.156700
     31 H3          57.5750    37.2420    10.1000 h1         1 AAM       0.058700
     32 HO3         58.1900    38.1820    12.2530 ho         1 AAM       0.501000
     33 H2          55.5040    38.3850    10.2120 h1         1 AAM       0.052700
     34 HO2         55.1380    38.3030    12.3160 ho         1 AAM       0.498000
     35 H1          55.4200    40.6730     9.9910 h2         1 AAM       0.065700
@<TRIPOS>BOND
     1     1     2 2   
     2     1     5 1   
     3     1    24 1   
     4     2     3 1   
     5     3     4 ar  
     6     3     6 ar  
     7     4     5 1   
     8     4     9 ar  
     9     5    23 1   
    10     6     7 ar  
    11     7     8 ar  
    12     7    25 1   
    13     8     9 ar  
    14     9    10 1   
    15    10    26 1   
    16    10    27 1   
    17    11    12 1   
    18    11    13 1   
    19    11    14 1   
    20    11    15 1   
    21    15    16 1   
    22    16    17 1   
    23    16    28 1   
    24    16    29 1   
    25    17    18 1   
    26    17    19 1   
    27    17    30 1   
    28    18    23 1   
    29    19    20 1   
    30    19    21 1   
    31    19    31 1   
    32    20    32 1   
    33    21    22 1   
    34    21    23 1   
    35    21    33 1   
    36    22    34 1   
    37    23    35 1   
@<TRIPOS>SUBSTRUCTURE
     1 AAM         1 TEMP              0 ****  ****    0 ROOT
