@<TRIPOS>MOLECULE
AF9
   43    44     1     0     0
SMALL
abcg2


@<TRIPOS>ATOM
      1 S1         -19.7770    -2.9910   -43.7000 sy         1 AF9       1.150600
      2 O3         -17.8430    -1.0550   -42.6960 os         1 AF9      -0.357100
      3 O4         -19.2510    -3.6470   -42.5140 o          1 AF9      -0.548000
      4 O5         -20.5760    -3.7810   -44.6260 o          1 AF9      -0.548000
      5 N6         -20.6890    -1.6630   -43.3330 n8         1 AF9      -1.010100
      6 N7         -19.1710    -3.3270   -50.4620 nb         1 AF9      -0.325000
      7 N8         -18.9900    -0.9720   -50.1740 nb         1 AF9      -0.269000
      8 N9         -18.0250    -4.8040   -49.1290 nv         1 AF9      -1.066900
      9 N10        -20.3090    -1.8760   -51.8180 nv         1 AF9      -1.049900
     10 C11        -14.9160    -0.8990   -46.6830 c3         1 AF9      -0.022400
     11 C12        -16.1560    -1.3620   -45.9520 ca         1 AF9       0.012700
     12 C13        -17.0530    -2.2390   -46.5590 ca         1 AF9       0.042100
     13 C14        -16.4150    -0.9660   -44.6410 ca         1 AF9      -0.203000
     14 C15        -18.4060    -2.3000   -44.5840 ca         1 AF9      -0.284500
     15 C16        -13.8180    -1.9600   -46.5620 c3         1 AF9      -0.085600
     16 C17        -14.4020     0.4600   -46.2200 c3         1 AF9      -0.085600
     17 C18        -17.5280    -1.4190   -43.9460 ca         1 AF9       0.225100
     18 C19        -18.1710    -2.7070   -45.8860 ca         1 AF9      -0.005000
     19 C20        -17.7260    -2.4450   -48.8010 ca         1 AF9      -0.147900
     20 C21        -17.0170    -0.1250   -42.0180 c3         1 AF9       0.155900
     21 C22        -18.3090    -3.5380   -49.4750 ca         1 AF9       0.425900
     22 C23        -18.1140    -1.1920   -49.1970 ca         1 AF9       0.158900
     23 C24        -19.4690    -2.0640   -50.7710 ca         1 AF9       0.406900
     24 H1         -21.6800    -1.8840   -43.3290 hn         1 AF9       0.478000
     25 H2         -20.4150    -1.2080   -42.4700 hn         1 AF9       0.478000
     26 H3         -18.3490    -5.5510   -49.7190 hn         1 AF9       0.499000
     27 H4         -17.2600    -5.0060   -48.5090 hn         1 AF9       0.499000
     28 H5         -20.8650    -2.6570   -52.1220 hn         1 AF9       0.488500
     29 H6         -20.7270    -0.9680   -51.9230 hn         1 AF9       0.488500
     30 H7         -15.1720    -0.8040   -47.7410 hc         1 AF9       0.069700
     31 H8         -15.7310    -0.2800   -44.1610 ha         1 AF9       0.123000
     32 H9         -12.9330    -1.6550   -47.1220 hc         1 AF9       0.037700
     33 H10        -13.5240    -2.0940   -45.5190 hc         1 AF9       0.037700
     34 H11        -14.1420    -2.9260   -46.9480 hc         1 AF9       0.037700
     35 H12        -15.1810     1.2220   -46.2550 hc         1 AF9       0.037700
     36 H13        -14.0010     0.4270   -45.2060 hc         1 AF9       0.037700
     37 H14        -13.5900     0.7830   -46.8730 hc         1 AF9       0.037700
     38 H15        -18.8470    -3.3980   -46.3740 ha         1 AF9       0.156000
     39 H16        -17.4680     0.0260   -41.0410 h1         1 AF9       0.048367
     40 H17        -16.0020    -0.5070   -41.8850 h1         1 AF9       0.048367
     41 H18        -16.9740     0.8330   -42.5410 h1         1 AF9       0.048367
     42 H19        -17.7010    -0.3160   -48.7030 h4         1 AF9       0.024100
     43 O2         -16.7800    -2.6740   -47.8320 os         1 AF9      -0.245200
@<TRIPOS>BOND
     1     1     3 2   
     2     1     4 2   
     3     1     5 1   
     4     1    14 1   
     5     2    17 1   
     6     2    20 1   
     7     5    24 1   
     8     5    25 1   
     9     6    21 ar  
    10     6    23 ar  
    11     7    22 ar  
    12     7    23 ar  
    13     8    21 1   
    14     8    26 1   
    15     8    27 1   
    16     9    23 1   
    17     9    28 1   
    18     9    29 1   
    19    10    11 1   
    20    10    15 1   
    21    10    16 1   
    22    10    30 1   
    23    11    12 ar  
    24    11    13 ar  
    25    12    18 ar  
    26    12    43 1   
    27    13    17 ar  
    28    13    31 1   
    29    14    17 ar  
    30    14    18 ar  
    31    15    32 1   
    32    15    33 1   
    33    15    34 1   
    34    16    35 1   
    35    16    36 1   
    36    16    37 1   
    37    18    38 1   
    38    19    21 ar  
    39    19    22 ar  
    40    19    43 1   
    41    20    39 1   
    42    20    40 1   
    43    20    41 1   
    44    22    42 1   
@<TRIPOS>SUBSTRUCTURE
     1 AF9         1 TEMP              0 ****  ****    0 ROOT
