@<TRIPOS>MOLECULE
AG9
   57    58     1     0     0
SMALL
abcg2


@<TRIPOS>ATOM
      1 P         -123.8190    30.2360   -23.6770 p5         1 AG9       1.268900
      2 N1        -119.7830    27.6030   -26.0440 nh         1 AG9      -0.711400
      3 C2        -118.5990    26.8980   -26.2010 c2         1 AG9       0.828100
      4 N2        -118.0930    26.8650   -27.4740 nu         1 AG9      -0.908400
      5 N3        -117.9900    26.2950   -25.2490 n2         1 AG9      -0.749900
      6 C4        -118.6520    26.1430   -23.9760 c6         1 AG9       0.423900
      7 N4        -119.3090    24.8330   -23.9190 n8         1 AG9      -1.016200
      8 C5        -119.5800    27.2910   -23.7120 c2         1 AG9      -0.416200
      9 C6        -120.1500    27.9180   -24.7400 c2         1 AG9       0.065000
     10 CA        -116.8110    26.2540   -27.7530 c3         1 AG9       0.231800
     11 CB        -115.5940    27.0660   -27.3060 c3         1 AG9      -0.108400
     12 CD        -115.5630    28.6470   -29.3110 c3         1 AG9       0.158800
     13 NE        -115.5000    30.0430   -29.7010 n7         1 AG9      -0.891400
     14 CG        -115.5750    28.5090   -27.7950 c3         1 AG9      -0.082400
     15 CZ        -115.4880    30.2490   -31.1430 c3         1 AG9       0.629900
     16 C1        -120.5840    28.0400   -27.1970 c5         1 AG9       0.434500
     17 OP1       -124.7370    29.3310   -22.8600 o          1 AG9      -0.920167
     18 C7        -121.2260    26.8450   -27.9210 c5         1 AG9       0.111300
     19 O2        -121.5790    27.1840   -29.2350 oh         1 AG9      -0.687000
     20 OP2       -124.2950    31.6700   -23.8550 o          1 AG9      -0.920167
     21 C3        -122.4970    26.6840   -27.1010 c5         1 AG9       0.138300
     22 O3        -123.4660    25.9420   -27.7820 oh         1 AG9      -0.714000
     23 OP3       -122.3350    30.0860   -23.3340 o          1 AG9      -0.920167
     24 C8        -122.8820    28.1390   -26.8100 c5         1 AG9       0.107300
     25 O4        -121.6370    28.8460   -26.7800 os         1 AG9      -0.391000
     26 C9        -123.6390    28.3130   -25.5110 c3         1 AG9       0.257600
     27 O5        -123.9500    29.6500   -25.2890 os         1 AG9      -0.562400
     28 NH1       -115.1700    31.6430   -31.3790 n8         1 AG9      -1.006200
     29 NH2       -116.7570    29.9800   -31.7700 n8         1 AG9      -1.006200
     30 HN2       -118.3170    27.6370   -28.0800 hn         1 AG9       0.462000
     31 H1N4      -119.6140    24.6610   -22.9680 hn         1 AG9       0.385000
     32 H2N4      -120.1590    24.8670   -24.4730 hn         1 AG9       0.385000
     33 H5        -119.8290    27.5810   -22.6990 ha         1 AG9       0.215000
     34 H6        -120.8750    28.7090   -24.6040 h4         1 AG9       0.315000
     35 H1A       -116.7740    26.0860   -28.8310 h1         1 AG9       0.044700
     36 H2A       -116.7850    25.2720   -27.2830 h1         1 AG9       0.044700
     37 H1B       -115.5430    27.0580   -26.2160 hc         1 AG9       0.050200
     38 H2B       -114.6980    26.5460   -27.6620 hc         1 AG9       0.050200
     39 H1D       -116.4790    28.2170   -29.7250 h1         1 AG9       0.018200
     40 H2D       -114.7330    28.0510   -29.7250 h1         1 AG9       0.018200
     41 HNE       -114.6580    30.4470   -29.3030 hn         1 AG9       0.414000
     42 H1G       -114.6870    29.0020   -27.3870 hc         1 AG9       0.053700
     43 H2G       -116.4320    29.0580   -27.3930 hc         1 AG9       0.053700
     44 H1        -119.9600    28.6370   -27.8730 h2         1 AG9       0.044700
     45 H2        -120.5930    25.9520   -27.8870 h1         1 AG9       0.051700
     46 HO2       -120.7740    27.2400   -29.7600 ho         1 AG9       0.477000
     47 H3        -122.2160    26.1970   -26.1550 h1         1 AG9       0.049700
     48 HO3       -124.1590    25.7040   -27.1580 ho         1 AG9       0.507000
     49 H4        -123.4810    28.5320   -27.6420 h1         1 AG9       0.068700
     50 H15       -124.5480    27.6920   -25.5870 h1         1 AG9      -0.009800
     51 H25       -123.0420    27.8740   -24.7010 h1         1 AG9      -0.009800
     52 H1H1      -114.2380    31.8500   -31.0400 hn         1 AG9       0.408750
     53 H2H1      -115.1420    31.7970   -32.3790 hn         1 AG9       0.408750
     54 H1H2      -116.9470    28.9880   -31.7920 hn         1 AG9       0.408750
     55 H2H2      -117.4990    30.4160   -31.2330 hn         1 AG9       0.408750
     56 HZ        -114.7640    29.5630   -31.6220 h3         1 AG9      -0.016300
     57 H7        -117.8780    26.1090   -23.2020 h2         1 AG9       0.049700
@<TRIPOS>BOND
     1     1    17 1   
     2     1    20 1   
     3     1    23 1   
     4     1    27 1   
     5     2     3 1   
     6     2     9 1   
     7     2    16 1   
     8     3     4 1   
     9     3     5 2   
    10     4    10 1   
    11     4    30 1   
    12     5     6 1   
    13     6     7 1   
    14     6     8 1   
    15     6    57 1   
    16     7    31 1   
    17     7    32 1   
    18     8     9 2   
    19     8    33 1   
    20     9    34 1   
    21    10    11 1   
    22    10    35 1   
    23    10    36 1   
    24    11    14 1   
    25    11    37 1   
    26    11    38 1   
    27    12    13 1   
    28    12    14 1   
    29    12    39 1   
    30    12    40 1   
    31    13    15 1   
    32    13    41 1   
    33    14    42 1   
    34    14    43 1   
    35    15    28 1   
    36    15    29 1   
    37    15    56 1   
    38    16    18 1   
    39    16    25 1   
    40    16    44 1   
    41    18    19 1   
    42    18    21 1   
    43    18    45 1   
    44    19    46 1   
    45    21    22 1   
    46    21    24 1   
    47    21    47 1   
    48    22    48 1   
    49    24    25 1   
    50    24    26 1   
    51    24    49 1   
    52    26    27 1   
    53    26    50 1   
    54    26    51 1   
    55    28    52 1   
    56    28    53 1   
    57    29    54 1   
    58    29    55 1   
@<TRIPOS>SUBSTRUCTURE
     1 AG9         1 TEMP              0 ****  ****    0 ROOT
