@<TRIPOS>MOLECULE
AGS
   45    47     1     0     0
SMALL
abcg2


@<TRIPOS>ATOM
      1 PG          17.6980    30.7360    22.6620 p5         1 AGS       1.368200
      2 S1G         18.7730    29.7790    23.9560 s          1 AGS      -0.765000
      3 O2G         16.1260    30.4820    22.8550 oh         1 AGS      -0.564900
      4 O3G         17.9470    30.4130    21.1470 oh         1 AGS      -0.564900
      5 PB          18.2170    33.4680    21.6180 p5         1 AGS       1.536800
      6 O1B         19.1950    34.4270    22.1760 o          1 AGS      -0.799000
      7 O2B         18.5190    32.6630    20.3660 o          1 AGS      -0.799000
      8 O3B         17.8750    32.3350    22.8010 os         1 AGS      -0.699800
      9 PA          15.6190    33.9230    20.3280 p5         1 AGS       1.470800
     10 O1A         15.9520    34.6960    19.1040 o          1 AGS      -0.829000
     11 O2A         15.3510    32.4430    20.2910 o          1 AGS      -0.829000
     12 O3A         16.7800    34.1950    21.4880 os         1 AGS      -0.711800
     13 O5          14.3890    34.7120    21.0620 os         1 AGS      -0.597400
     14 C5          13.7070    34.1260    22.1550 c3         1 AGS       0.230600
     15 C4          12.3670    33.5300    21.7850 c5         1 AGS       0.089300
     16 O4          11.4030    34.5450    21.4920 os         1 AGS      -0.447000
     17 C3          12.3290    32.6360    20.5440 c5         1 AGS       0.181300
     18 O3          12.9360    31.4000    20.6940 oh         1 AGS      -0.741000
     19 C2          10.8330    32.5940    20.2760 c5         1 AGS       0.118300
     20 O2          10.2260    31.7310    21.1960 oh         1 AGS      -0.686000
     21 C1          10.4730    34.0670    20.5640 c5         1 AGS       0.276300
     22 N9          10.5410    34.8860    19.3610 na         1 AGS      -0.293300
     23 C8          11.5880    35.6350    18.8960 cc         1 AGS       0.459700
     24 N7          11.3420    36.2080    17.7530 nd         1 AGS      -0.574100
     25 C7          10.0680    35.8150    17.4400 ca         1 AGS      -0.083600
     26 C6           9.2250    36.0700    16.3420 ca         1 AGS       0.439900
     27 N6           9.5870    36.8420    15.3160 nv         1 AGS      -1.075900
     28 N1           8.0080    35.5130    16.3430 nb         1 AGS      -0.324000
     29 C10          7.6460    34.7460    17.3670 ca         1 AGS       0.155900
     30 N3           8.3440    34.4280    18.4430 nb         1 AGS      -0.223000
     31 C9           9.5520    34.9910    18.4280 ca         1 AGS       0.100500
     32 HOG2        15.8960    30.1820    23.7450 ho         1 AGS       0.306000
     33 H21         18.1960    31.2910    20.6340 ho         1 AGS       0.306000
     34 H5'1        14.2940    33.3330    22.6290 h1         1 AGS       0.042200
     35 H5'2        13.5620    34.8990    22.9140 h1         1 AGS       0.042200
     36 H4          12.0360    32.9570    22.6600 h1         1 AGS       0.058700
     37 H3          12.7680    33.1950    19.7050 h1         1 AGS       0.050700
     38 HO3         13.8940    31.5890    20.5780 ho         1 AGS       0.603000
     39 H2          10.5940    32.3230    19.2400 h1         1 AGS       0.061700
     40 HO2          9.2810    31.7040    21.0160 ho         1 AGS       0.486000
     41 H1           9.4520    34.1600    20.9480 h2         1 AGS       0.076700
     42 H8          12.5120    35.7220    19.4450 h5         1 AGS       0.121800
     43 HN61         8.9750    36.9510    14.5250 hn         1 AGS       0.499000
     44 HN62        10.5140    37.2250    15.2560 hn         1 AGS       0.499000
     45 H6           6.6470    34.3260    17.3040 h5         1 AGS       0.027100
@<TRIPOS>BOND
     1     1     2 2   
     2     1     3 1   
     3     1     4 1   
     4     1     8 1   
     5     3    32 1   
     6     4    33 1   
     7     5     6 1   
     8     5     7 1   
     9     5     8 1   
    10     5    12 1   
    11     9    10 1   
    12     9    11 1   
    13     9    12 1   
    14     9    13 1   
    15    13    14 1   
    16    14    15 1   
    17    14    34 1   
    18    14    35 1   
    19    15    16 1   
    20    15    17 1   
    21    15    36 1   
    22    16    21 1   
    23    17    18 1   
    24    17    19 1   
    25    17    37 1   
    26    18    38 1   
    27    19    20 1   
    28    19    21 1   
    29    19    39 1   
    30    20    40 1   
    31    21    22 1   
    32    21    41 1   
    33    22    23 1   
    34    22    31 1   
    35    23    24 2   
    36    23    42 1   
    37    24    25 1   
    38    25    26 ar  
    39    25    31 ar  
    40    26    27 1   
    41    26    28 ar  
    42    27    43 1   
    43    27    44 1   
    44    28    29 ar  
    45    29    30 ar  
    46    29    45 1   
    47    30    31 ar  
@<TRIPOS>SUBSTRUCTURE
     1 AGS         1 TEMP              0 ****  ****    0 ROOT
