@<TRIPOS>MOLECULE
AHG
   29    29     1     0     0
SMALL
abcg2


@<TRIPOS>ATOM
      1 P1          20.6950   108.6540    26.1260 p5         1 AHG       1.292900
      2 O1P         20.9040   107.3920    26.9450 o          1 AHG      -0.934000
      3 O2P         20.9290   108.5230    24.6280 o          1 AHG      -0.934000
      4 O3P         19.4880   109.5010    26.5080 o          1 AHG      -0.934000
      5 O1          22.0470   109.6000    26.6830 os         1 AHG      -0.603900
      6 C1          22.2100   110.9010    26.1890 c3         1 AHG       0.232100
      7 C2          22.8630   111.7420    27.2860 c5         1 AHG       0.136300
      8 C3          24.2580   111.2470    27.6950 c5         1 AHG       0.111300
      9 O3          24.4390   109.8580    27.7130 oh         1 AHG      -0.769000
     10 C4          25.1410   111.9870    26.6970 c5         1 AHG       0.111300
     11 O4          26.4780   112.1590    27.0960 oh         1 AHG      -0.769000
     12 C5          24.4420   113.3350    26.5970 c5         1 AHG       0.136300
     13 O5          23.0620   113.0730    26.8370 os         1 AHG      -0.437000
     14 C6          24.6390   114.0190    25.2620 c3         1 AHG       0.232100
     15 O6          24.0690   115.2870    25.2690 os         1 AHG      -0.603900
     16 P2          23.9940   116.1280    23.7680 p5         1 AHG       1.292900
     17 O4P         23.0750   115.2760    22.8960 o          1 AHG      -0.934000
     18 O5P         25.4390   116.1820    23.2810 o          1 AHG      -0.934000
     19 O6P         23.4150   117.4610    24.2220 o          1 AHG      -0.934000
     20 H11         22.8280   110.9180    25.2790 h1         1 AHG       0.012700
     21 H12         21.2490   111.3590    25.9270 h1         1 AHG       0.012700
     22 H2          22.1840   111.7580    28.1460 h1         1 AHG       0.032700
     23 H3          24.4900   111.6490    28.6940 h1         1 AHG       0.030200
     24 HO3         23.6290   109.4570    27.3390 ho         1 AHG       0.532500
     25 H4          25.0920   111.4670    25.7260 h1         1 AHG       0.030200
     26 HO4         26.9070   111.2980    27.0810 ho         1 AHG       0.532500
     27 H5          24.8290   113.9870    27.3950 h1         1 AHG       0.032700
     28 H61         24.2110   113.3700    24.4810 h1         1 AHG       0.012700
     29 H62         25.7240   114.0530    25.0720 h1         1 AHG       0.012700
@<TRIPOS>BOND
     1     1     2 1   
     2     1     3 1   
     3     1     4 1   
     4     1     5 1   
     5     5     6 1   
     6     6     7 1   
     7     6    20 1   
     8     6    21 1   
     9     7     8 1   
    10     7    13 1   
    11     7    22 1   
    12     8     9 1   
    13     8    10 1   
    14     8    23 1   
    15     9    24 1   
    16    10    11 1   
    17    10    12 1   
    18    10    25 1   
    19    11    26 1   
    20    12    13 1   
    21    12    14 1   
    22    12    27 1   
    23    14    15 1   
    24    14    28 1   
    25    14    29 1   
    26    15    16 1   
    27    16    17 1   
    28    16    18 1   
    29    16    19 1   
@<TRIPOS>SUBSTRUCTURE
     1 AHG         1 TEMP              0 ****  ****    0 ROOT
