@<TRIPOS>MOLECULE
ASU
   22    22     1     0     0
SMALL
abcg2


@<TRIPOS>ATOM
      1 P           19.7890     2.0680    14.2150 p5         1 ASU       1.270900
      2 OP1         20.9070     2.9630    14.7300 o          1 ASU      -0.921833
      3 OP2         20.2100     1.0230    13.1860 o          1 ASU      -0.921833
      4 OP3         18.8260     1.5510    15.2810 o          1 ASU      -0.921833
      5 O5          18.8640     3.2140    13.3210 os         1 ASU      -0.570400
      6 S4          17.6370     5.1750    11.3520 ss         1 ASU      -0.361000
      7 O1          15.6960     6.0850     9.8240 oh         1 ASU      -0.635000
      8 C2          15.7640     3.6540    10.2420 c5         1 ASU      -0.106400
      9 C5          17.6920     2.7750    12.7200 c3         1 ASU       0.264600
     10 C4          16.7910     3.9660    12.4440 c5         1 ASU       0.041300
     11 C1          16.5120     4.9490     9.9410 c5         1 ASU       0.278300
     12 C3          15.4870     3.5770    11.7340 c5         1 ASU       0.163300
     13 O3          14.4210     4.4440    12.0410 oh         1 ASU      -0.673000
     14 H2'         16.3990     2.8110     9.9620 hc         1 ASU       0.050200
     15 H5          17.8820     2.2400    11.7760 h1         1 ASU      -0.002800
     16 H5'         17.1360     2.0810    13.3680 h1         1 ASU      -0.002800
     17 H4          16.5690     4.4600    13.3940 h1         1 ASU       0.081700
     18 H1          17.1290     4.8270     9.0430 h2         1 ASU       0.035700
     19 H3          15.2330     2.5440    12.0120 h1         1 ASU       0.043700
     20 HO'3        14.2380     4.3710    12.9830 ho         1 ASU       0.437000
     21 HO'1        15.1790     5.9910     9.0150 ho         1 ASU       0.401000
     22 H2          14.8480     3.5750     9.6510 hc         1 ASU       0.050200
@<TRIPOS>BOND
     1     1     2 1   
     2     1     3 1   
     3     1     4 1   
     4     1     5 1   
     5     5     9 1   
     6     6    10 1   
     7     6    11 1   
     8     7    11 1   
     9     7    21 1   
    10     8    11 1   
    11     8    12 1   
    12     8    14 1   
    13     8    22 1   
    14     9    10 1   
    15     9    15 1   
    16     9    16 1   
    17    10    12 1   
    18    10    17 1   
    19    11    18 1   
    20    12    13 1   
    21    12    19 1   
    22    13    20 1   
@<TRIPOS>SUBSTRUCTURE
     1 ASU         1 TEMP              0 ****  ****    0 ROOT
