@<TRIPOS>MOLECULE
AZD
   39    40     1     0     0
SMALL
abcg2


@<TRIPOS>ATOM
      1 PA          49.2380     2.5310     9.0300 p5         1 AZD       1.466800
      2 O1A         47.8820     2.2140     9.5910 o          1 AZD      -0.883500
      3 O2A         49.5310     2.2760     7.5770 o          1 AZD      -0.883500
      4 O3A         49.7340     4.0160     9.3670 os         1 AZD      -0.730800
      5 PB          49.2720     5.1530    10.5980 p5         1 AZD       1.362900
      6 O1B         47.8930     5.6290    10.1740 o          1 AZD      -0.945833
      7 O2B         50.3880     6.1760    10.4530 o          1 AZD      -0.945833
      8 O3B         49.3020     4.3620    11.9080 o          1 AZD      -0.945833
      9 O5          50.3700     1.5980     9.8250 os         1 AZD      -0.629400
     10 C5          50.1860     1.0980    11.1220 c3         1 AZD       0.240600
     11 C4          51.4590     1.2060    11.9440 c5         1 AZD       0.142300
     12 O4          52.5500     0.5400    11.3090 os         1 AZD      -0.484000
     13 C3          51.9310     2.6480    12.1910 c5         1 AZD       0.128500
     14 N3          52.5990     2.7660    13.5040 n2         1 AZD      -0.467200
     15 N4          51.8740     2.9150    14.4670 n1         1 AZD       0.264000
     16 N5          51.2840     3.0600    15.4150 n1         1 AZD      -0.168000
     17 C2          52.9910     2.8350    11.1250 c5         1 AZD      -0.094400
     18 C1          53.5930     1.4380    11.0290 c5         1 AZD       0.329700
     19 N1          54.1580     1.1220     9.7220 n          1 AZD      -0.295000
     20 C9          55.5150     0.9260     9.5990 c          1 AZD       0.613000
     21 O2          56.2990     0.9970    10.5230 o          1 AZD      -0.612000
     22 N2          55.9270     0.6450     8.3210 ns         1 AZD      -0.477500
     23 C8          55.1570     0.5390     7.1750 c          1 AZD       0.589200
     24 O6          55.6750     0.2800     6.1040 o          1 AZD      -0.606000
     25 C7          53.7420     0.7640     7.3880 cc         1 AZD      -0.312400
     26 C5A         52.8060     0.6790     6.2260 c3         1 AZD      -0.019900
     27 C6          53.3250     1.0380     8.6360 cd         1 AZD       0.047600
     28 H5'1        49.4010     1.6280    11.6680 h1         1 AZD       0.030700
     29 H5'2        49.8910     0.0420    11.0770 h1         1 AZD       0.030700
     30 H4          51.2560     0.7060    12.8980 h1         1 AZD       0.019700
     31 H3          51.0990     3.3600    12.1130 h1         1 AZD       0.216700
     32 H2'1        52.5180     3.1360    10.1900 hc         1 AZD       0.096700
     33 H2'2        53.7360     3.5850    11.3850 hc         1 AZD       0.096700
     34 H1          54.4040     1.3190    11.7480 h2         1 AZD       0.066700
     35 HN3         56.9240     0.5020     8.2130 hn         1 AZD       0.304500
     36 H51         51.7890     0.9200     6.5320 hc         1 AZD       0.049033
     37 H52         53.0900     1.3750     5.4360 hc         1 AZD       0.049033
     38 H53         52.8000    -0.3200     5.7880 hc         1 AZD       0.049033
     39 H6          52.2760     1.2040     8.8480 h4         1 AZD       0.306000
@<TRIPOS>BOND
     1     1     2 1   
     2     1     3 1   
     3     1     4 1   
     4     1     9 1   
     5     4     5 1   
     6     5     6 1   
     7     5     7 1   
     8     5     8 1   
     9     9    10 1   
    10    10    11 1   
    11    10    28 1   
    12    10    29 1   
    13    11    12 1   
    14    11    13 1   
    15    11    30 1   
    16    12    18 1   
    17    13    14 1   
    18    13    17 1   
    19    13    31 1   
    20    14    15 1   
    21    15    16 3   
    22    17    18 1   
    23    17    32 1   
    24    17    33 1   
    25    18    19 1   
    26    18    34 1   
    27    19    20 1   
    28    19    27 1   
    29    20    21 2   
    30    20    22 1   
    31    22    23 1   
    32    22    35 1   
    33    23    24 2   
    34    23    25 1   
    35    25    26 1   
    36    25    27 2   
    37    26    36 1   
    38    26    37 1   
    39    26    38 1   
    40    27    39 1   
@<TRIPOS>SUBSTRUCTURE
     1 AZD         1 TEMP              0 ****  ****    0 ROOT
