@<TRIPOS>MOLECULE
AZT
   43    44     1     0     0
SMALL
abcg2


@<TRIPOS>ATOM
      1 PA          -0.1110     2.0120     4.7350 p5         1 AZT       1.485800
      2 O1A          1.0910     2.5230     5.4660 o          1 AZT      -0.886000
      3 O2A         -1.3620     1.6140     5.4580 o          1 AZT      -0.886000
      4 O3A         -0.5930     3.0510     3.5750 os         1 AZT      -0.713800
      5 PB           0.3470     3.9790     2.5570 p5         1 AZT       1.554800
      6 O1B          1.4730     3.1330     2.0310 o          1 AZT      -0.925000
      7 O2B          0.6770     5.2530     3.2800 o          1 AZT      -0.925000
      8 O3B         -0.7570     4.3320     1.4490 os         1 AZT      -0.740800
      9 PG          -1.4670     3.4670     0.1300 p5         1 AZT       1.396900
     10 O1G         -0.3240     3.1870    -0.8330 o          1 AZT      -0.966167
     11 O2G         -2.4900     4.4800    -0.3540 o          1 AZT      -0.966167
     12 O3G         -2.0820     2.2210     0.7820 o          1 AZT      -0.966167
     13 O5           0.4460     0.7260     3.8700 os         1 AZT      -0.609400
     14 C5          -0.4300    -0.0330     3.0710 c3         1 AZT       0.209600
     15 C4           0.4250    -0.9520     2.2080 c5         1 AZT       0.144300
     16 O4          -0.3920    -1.9390     1.5980 os         1 AZT      -0.501000
     17 C3           1.1200    -0.2290     1.0480 c5         1 AZT       0.144500
     18 N3           2.3320    -0.9490     0.6170 n2         1 AZT      -0.466200
     19 N4           3.3380    -0.7450     1.2680 n1         1 AZT       0.265000
     20 N5           4.3170    -0.6140     1.8050 n1         1 AZT      -0.184000
     21 C2           0.0850    -0.3350    -0.0590 c5         1 AZT      -0.112400
     22 C1          -0.5580    -1.6890     0.2210 c5         1 AZT       0.326700
     23 N1          -1.9720    -1.7960    -0.1140 n          1 AZT      -0.288000
     24 C9          -2.4450    -3.0360    -0.4960 c          1 AZT       0.606000
     25 O2          -1.7350    -4.0000    -0.6940 o          1 AZT      -0.631000
     26 N2          -3.8060    -3.1050    -0.6460 ns         1 AZT      -0.478500
     27 C8          -4.7440    -2.1160    -0.4070 c          1 AZT       0.585200
     28 O6          -5.9310    -2.3400    -0.5630 o          1 AZT      -0.630000
     29 C7          -4.1770    -0.8570     0.0240 cc         1 AZT      -0.312400
     30 C5A         -5.0870     0.2950     0.3080 c3         1 AZT      -0.018900
     31 C6          -2.8420    -0.7660     0.1560 cd         1 AZT       0.042600
     32 H5'1        -1.0920    -0.6530     3.6870 h1         1 AZT       0.050700
     33 H5'2        -1.0620     0.6030     2.4390 h1         1 AZT       0.050700
     34 H4           1.1500    -1.4580     2.8540 h1         1 AZT       0.041700
     35 H3           1.3520     0.8130     1.2880 h1         1 AZT       0.205700
     36 H2'1        -0.5970     0.5100     0.0310 hc         1 AZT       0.122200
     37 H2'2         0.5300    -0.3010    -1.0510 hc         1 AZT       0.122200
     38 H1          -0.0550    -2.4690    -0.3500 h2         1 AZT       0.056700
     39 HN3         -4.1600    -4.0080    -0.9370 hn         1 AZT       0.290500
     40 H51         -5.6950     0.5460    -0.5620 hc         1 AZT       0.050367
     41 H52         -4.5070     1.1740     0.5810 hc         1 AZT       0.050367
     42 H53         -5.7730     0.0710     1.1260 hc         1 AZT       0.050367
     43 H6          -2.4090     0.1830     0.4640 h4         1 AZT       0.349000
@<TRIPOS>BOND
     1     1     2 1   
     2     1     3 1   
     3     1     4 1   
     4     1    13 1   
     5     4     5 1   
     6     5     6 1   
     7     5     7 1   
     8     5     8 1   
     9     8     9 1   
    10     9    10 1   
    11     9    11 1   
    12     9    12 1   
    13    13    14 1   
    14    14    15 1   
    15    14    32 1   
    16    14    33 1   
    17    15    16 1   
    18    15    17 1   
    19    15    34 1   
    20    16    22 1   
    21    17    18 1   
    22    17    21 1   
    23    17    35 1   
    24    18    19 1   
    25    19    20 3   
    26    21    22 1   
    27    21    36 1   
    28    21    37 1   
    29    22    23 1   
    30    22    38 1   
    31    23    24 1   
    32    23    31 1   
    33    24    25 2   
    34    24    26 1   
    35    26    27 1   
    36    26    39 1   
    37    27    28 2   
    38    27    29 1   
    39    29    30 1   
    40    29    31 2   
    41    30    40 1   
    42    30    41 1   
    43    30    42 1   
    44    31    43 1   
@<TRIPOS>SUBSTRUCTURE
     1 AZT         1 TEMP              0 ****  ****    0 ROOT
