@<TRIPOS>MOLECULE
AZW
   35    36     1     0     0
SMALL
abcg2


@<TRIPOS>ATOM
      1 P           -6.1970     0.9360    -0.0540 p5         1 AZW       1.263900
      2 OP1         -5.9600     2.0130    -1.1100 o          1 AZW      -0.917167
      3 OP2         -6.9170    -0.3050    -0.5730 o          1 AZW      -0.917167
      4 O5          -4.6130     0.3700     0.3430 os         1 AZW      -0.575400
      5 C5          -3.8970    -0.2660    -0.6580 c3         1 AZW       0.275900
      6 C1A         -2.4100    -0.1400    -0.4500 ca         1 AZW       0.017700
      7 C2A         -1.8640     0.7940     0.4240 ca         1 AZW      -0.133500
      8 C6A         -1.5380    -0.9670    -1.1680 ca         1 AZW      -0.133500
      9 C3A         -0.4890     0.9020     0.5690 ca         1 AZW      -0.072000
     10 C5A         -0.1700    -0.8680    -1.0300 ca         1 AZW      -0.072000
     11 C4A          0.3700     0.0770    -0.1500 ca         1 AZW      -0.004600
     12 N5A          1.7390     0.2770     0.0840 ne         1 AZW      -0.165400
     13 C1B          6.6470     0.0020     0.0330 ca         1 AZW      -0.112300
     14 C2B          6.1200    -1.0010    -0.7730 ca         1 AZW      -0.103000
     15 C6B          5.7670     0.8750     0.6770 ca         1 AZW      -0.103000
     16 C3B          4.7500    -1.1250    -0.9440 ca         1 AZW      -0.103000
     17 C5B          4.4000     0.7520     0.5180 ca         1 AZW      -0.103000
     18 C4B          3.8780    -0.2540    -0.2980 ca         1 AZW       0.130400
     19 N5B          2.5090    -0.4710    -0.5360 nf         1 AZW      -0.271400
     20 O3           8.4580     0.6220     1.4510 oh         1 AZW      -0.653000
     21 H5          -4.1410    -1.3380    -0.7290 h1         1 AZW       0.020700
     22 H5'         -4.1190     0.1490    -1.6540 h1         1 AZW       0.020700
     23 H2A         -2.5160     1.4400     0.9950 ha         1 AZW       0.137000
     24 H6A         -1.9490    -1.7060    -1.8480 ha         1 AZW       0.137000
     25 H3A         -0.0640     1.6300     1.2490 ha         1 AZW       0.102500
     26 H5A          0.4830    -1.5200    -1.5950 ha         1 AZW       0.102500
     27 H2B          6.7840    -1.6960    -1.2720 ha         1 AZW       0.105000
     28 H6B          6.1540     1.6620     1.3110 ha         1 AZW       0.105000
     29 H3B          4.3430    -1.9070    -1.5730 ha         1 AZW       0.130500
     30 H5B          3.7350     1.4390     1.0250 ha         1 AZW       0.130500
     31 H3           8.6200    -0.7970    -0.0640 h1         1 AZW       0.015200
     32 H3'          8.4740     0.8660    -0.6090 h1         1 AZW       0.015200
     33 H1           9.3720     0.9190     1.4450 ho         1 AZW       0.431000
     34 OP3         -6.6620     1.4450     1.3020 o          1 AZW      -0.917167
     35 C3           8.1360     0.1620     0.1620 c3         1 AZW       0.213900
@<TRIPOS>BOND
     1     1     2 1   
     2     1     3 1   
     3     1     4 1   
     4     1    34 1   
     5     4     5 1   
     6     5     6 1   
     7     5    21 1   
     8     5    22 1   
     9     6     7 ar  
    10     6     8 ar  
    11     7     9 ar  
    12     7    23 1   
    13     8    10 ar  
    14     8    24 1   
    15     9    11 ar  
    16     9    25 1   
    17    10    11 ar  
    18    10    26 1   
    19    11    12 1   
    20    12    19 2   
    21    13    14 ar  
    22    13    15 ar  
    23    13    35 1   
    24    14    16 ar  
    25    14    27 1   
    26    15    17 ar  
    27    15    28 1   
    28    16    18 ar  
    29    16    29 1   
    30    17    18 ar  
    31    17    30 1   
    32    18    19 1   
    33    20    33 1   
    34    20    35 1   
    35    31    35 1   
    36    32    35 1   
@<TRIPOS>SUBSTRUCTURE
     1 AZW         1 TEMP              0 ****  ****    0 ROOT
