@<TRIPOS>MOLECULE
I4E
   21    20     1     0     0
SMALL
abcg2


@<TRIPOS>ATOM
      1 CL1         -4.4700     0.4420     1.7980 cl         1 I4E      -0.273000
      2 C1          -2.7180     0.0620     1.5360 c3         1 I4E       0.098600
      3 C2          -2.5360    -0.6460     0.2010 c3         1 I4E       0.106000
      4 N1          -1.1350    -0.9600    -0.0220 ns         1 I4E      -0.500900
      5 C3          -0.2910    -0.0610    -0.5480 c          1 I4E       0.661100
      6 O1          -0.5920     1.0500    -0.9480 o          1 I4E      -0.588100
      7 N2           1.0780    -0.4830    -0.6410 n          1 I4E      -0.243800
      8 C4           2.0740     0.3920    -1.2590 c3         1 I4E       0.073000
      9 C5           2.7280     1.2780    -0.2090 c3         1 I4E       0.111600
     10 CL2          3.9560     2.3400    -1.0040 cl         1 I4E      -0.271000
     11 N3           1.3930    -1.6710    -0.1230 n2         1 I4E       0.078700
     12 O2           2.5680    -1.9780    -0.1740 o          1 I4E      -0.237300
     13 H1          -2.1870     1.0090     1.5610 h1         1 I4E       0.075200
     14 H2          -2.4060    -0.5640     2.3680 h1         1 I4E       0.075200
     15 H3          -3.0960    -1.5790     0.1890 h1         1 I4E       0.077700
     16 H4          -2.8940    -0.0150    -0.6100 h1         1 I4E       0.077700
     17 H5          -0.7630    -1.8350     0.3140 hn         1 I4E       0.343500
     18 H6           2.8120    -0.2450    -1.7410 h1         1 I4E       0.090700
     19 H7           1.5620     0.9920    -2.0040 h1         1 I4E       0.090700
     20 H8           2.0040     1.9340     0.2650 h1         1 I4E       0.077200
     21 H9           3.2550     0.6960     0.5400 h1         1 I4E       0.077200
@<TRIPOS>BOND
     1     1     2 1   
     2     2     3 1   
     3     2    13 1   
     4     2    14 1   
     5     3     4 1   
     6     3    15 1   
     7     3    16 1   
     8     4     5 1   
     9     4    17 1   
    10     5     6 2   
    11     5     7 1   
    12     7     8 1   
    13     7    11 1   
    14     8     9 1   
    15     8    18 1   
    16     8    19 1   
    17     9    10 1   
    18     9    20 1   
    19     9    21 1   
    20    11    12 2   
@<TRIPOS>SUBSTRUCTURE
     1 I4E         1 TEMP              0 ****  ****    0 ROOT
