@<TRIPOS>MOLECULE
IC5
   44    46     1     0     0
SMALL
abcg2


@<TRIPOS>ATOM
      1 O6         -96.9610     3.2480   -21.9830 o          1 IC5      -0.551000
      2 N1         -99.0130     4.0520   -21.3560 ns         1 IC5      -0.454400
      3 N2        -101.1420     4.7090   -20.7260 nv         1 IC5      -1.061200
      4 C2         -99.8910     5.0570   -21.0380 cc         1 IC5       0.736800
      5 C4         -98.2630     6.5430   -21.3500 cd         1 IC5       0.213400
      6 C5         -97.3140     5.5940   -21.6850 cc         1 IC5      -0.363600
      7 C6         -97.6620     4.2130   -21.7090 c          1 IC5       0.634600
      8 C8         -96.3480     7.5700   -21.8110 cc         1 IC5       0.082700
      9 N3         -99.5400     6.3330   -21.0220 nd         1 IC5      -0.660100
     10 N7         -96.1360     6.2730   -21.9680 na         1 IC5       0.015300
     11 N9         -97.6300     7.7700   -21.4330 na         1 IC5       0.037000
     12 C1         -98.2370     9.0660   -21.1430 c5         1 IC5       0.272300
     13 O4         -97.9450     9.9470   -22.2020 os         1 IC5      -0.495000
     14 C7         -97.6570     9.7470   -19.9050 c5         1 IC5       0.121300
     15 O2         -98.0890     9.2300   -18.6800 oh         1 IC5      -0.815000
     16 C3         -98.0240    11.2020   -20.1850 c5         1 IC5       0.129300
     17 O3         -99.4130    11.4400   -19.9600 oh         1 IC5      -0.774000
     18 C9         -97.7280    11.2960   -21.6770 c5         1 IC5       0.142300
     19 C10        -96.3230    11.7980   -22.0060 c3         1 IC5       0.235600
     20 O5         -95.3700    11.5420   -20.9780 os         1 IC5      -0.603400
     21 PA         -94.1350    10.4800   -21.0460 p5         1 IC5       1.506800
     22 O1A        -92.8750    11.2410   -20.7910 o          1 IC5      -0.877500
     23 O2A        -94.2620     9.6780   -22.3090 o          1 IC5      -0.877500
     24 O3A        -94.4670     9.4850   -19.8430 os         1 IC5      -0.754800
     25 PB         -94.4870     9.6090   -18.1470 p5         1 IC5       1.378900
     26 O1B        -93.1620     9.0200   -17.7150 o          1 IC5      -0.920833
     27 O2B        -95.6890     8.7260   -17.7890 o          1 IC5      -0.920833
     28 O3B        -94.6900    11.0720   -17.8230 o          1 IC5      -0.920833
     29 CM         -94.8650     5.6720   -22.3690 c3         1 IC5       0.062900
     30 H2        -101.8100     5.4360   -20.5370 hn         1 IC5       0.508000
     31 H3        -101.4670     3.7610   -20.7940 hn         1 IC5       0.508000
     32 H4         -95.6050     8.3490   -21.9830 h5         1 IC5       0.323000
     33 H5         -99.3050     8.8750   -21.0450 h2         1 IC5       0.083700
     34 H6         -96.5780     9.6640   -19.9730 h1         1 IC5       0.127700
     35 H7         -97.2300     9.0180   -18.2020 ho         1 IC5       0.628000
     36 H8         -97.4150    11.8900   -19.6030 h1         1 IC5       0.131700
     37 H9         -99.6190    11.1020   -19.0790 ho         1 IC5       0.520000
     38 H10        -98.4490    11.9420   -22.1760 h1         1 IC5       0.046700
     39 H11        -96.0020    11.3570   -22.9480 h1         1 IC5       0.025200
     40 H12        -96.3720    12.8810   -22.1230 h1         1 IC5       0.025200
     41 H16        -95.0080     5.1100   -23.2870 h1         1 IC5       0.079367
     42 H17        -94.1470     6.4700   -22.5240 h1         1 IC5       0.079367
     43 H18        -94.5220     5.0070   -21.5820 h1         1 IC5       0.079367
     44 H1         -99.3400     3.0950   -21.3480 hn         1 IC5       0.315500
@<TRIPOS>BOND
     1     1     7 2   
     2     2     4 1   
     3     2     7 1   
     4     2    44 1   
     5     3     4 1   
     6     3    30 1   
     7     3    31 1   
     8     4     9 2   
     9     5     6 2   
    10     5     9 1   
    11     5    11 1   
    12     6     7 1   
    13     6    10 1   
    14     8    10 2   
    15     8    11 1   
    16     8    32 1   
    17    10    29 1   
    18    11    12 1   
    19    12    13 1   
    20    12    14 1   
    21    12    33 1   
    22    13    18 1   
    23    14    15 1   
    24    14    16 1   
    25    14    34 1   
    26    15    35 1   
    27    16    17 1   
    28    16    18 1   
    29    16    36 1   
    30    17    37 1   
    31    18    19 1   
    32    18    38 1   
    33    19    20 1   
    34    19    39 1   
    35    19    40 1   
    36    20    21 1   
    37    21    22 1   
    38    21    23 1   
    39    21    24 1   
    40    24    25 1   
    41    25    26 1   
    42    25    27 1   
    43    25    28 1   
    44    29    41 1   
    45    29    42 1   
    46    29    43 1   
@<TRIPOS>SUBSTRUCTURE
     1 IC5         1 TEMP              0 ****  ****    0 ROOT
