@<TRIPOS>MOLECULE
IMP
   34    36     1     0     0
SMALL
abcg2


@<TRIPOS>ATOM
      1 P           -5.6580   -30.9990    -6.2770 p5         1 IMP       1.271900
      2 O1P         -4.7410   -31.7500    -5.3180 o          1 IMP      -0.925500
      3 O2P         -4.9430   -29.9090    -7.0670 o          1 IMP      -0.925500
      4 O3P         -6.9890   -30.5740    -5.6770 o          1 IMP      -0.925500
      5 O5          -6.1540   -32.1330    -7.4170 os         1 IMP      -0.569400
      6 C5          -5.1760   -32.7760    -8.2040 c3         1 IMP       0.247600
      7 C4          -5.8290   -33.4180    -9.4020 c5         1 IMP       0.153300
      8 O4          -6.3460   -32.4000   -10.2840 os         1 IMP      -0.396000
      9 C3          -4.8750   -34.2360   -10.2700 c5         1 IMP       0.087300
     10 O3          -4.7860   -35.5660    -9.7880 oh         1 IMP      -0.707000
     11 C2          -5.5310   -34.1530   -11.6590 c5         1 IMP       0.085300
     12 O2          -6.5600   -35.1200   -11.7800 oh         1 IMP      -0.719000
     13 C1          -6.1840   -32.7660   -11.6370 c5         1 IMP       0.299300
     14 N9          -5.3860   -31.7430   -12.3140 na         1 IMP      -0.166500
     15 C8          -4.2780   -31.0810   -11.8410 cc         1 IMP       0.465400
     16 N7          -3.7570   -30.2640   -12.7250 nd         1 IMP      -0.632000
     17 C7          -4.5530   -30.3950   -13.8410 cd         1 IMP       0.137500
     18 C6          -4.4770   -29.7520   -15.1170 c          1 IMP       0.502500
     19 O6          -3.6630   -28.9260   -15.5190 o          1 IMP      -0.549000
     20 N1          -5.5210   -30.2000   -15.9490 ns         1 IMP      -0.438400
     21 C10         -6.4720   -31.1080   -15.6130 cd         1 IMP       0.468800
     22 N3          -6.5460   -31.7010   -14.4570 nc         1 IMP      -0.585100
     23 C9          -5.5700   -31.3130   -13.6030 cc         1 IMP       0.062400
     24 H5'1        -4.4210   -32.0620    -8.5470 h1         1 IMP       0.012200
     25 H5'2        -4.6650   -33.5590    -7.6320 h1         1 IMP       0.012200
     26 H4          -6.6560   -34.0550    -9.0760 h1         1 IMP       0.076700
     27 H3          -3.8890   -33.7700   -10.2960 h1         1 IMP       0.055700
     28 HO3         -3.9470   -35.9470   -10.0690 ho         1 IMP       0.491000
     29 H2          -4.8130   -34.2450   -12.4750 h1         1 IMP       0.042700
     30 HO2         -6.2760   -35.8940   -11.2740 ho         1 IMP       0.518000
     31 H1          -7.1430   -32.7930   -12.1490 h2         1 IMP       0.103700
     32 H8          -3.9170   -31.2270   -10.8380 h5         1 IMP       0.104100
     33 HN1         -5.5520   -29.7990   -16.8770 hn         1 IMP       0.310500
     34 H6          -7.1990   -31.3300   -16.3810 h5         1 IMP       0.033800
@<TRIPOS>BOND
     1     1     2 1   
     2     1     3 1   
     3     1     4 1   
     4     1     5 1   
     5     5     6 1   
     6     6     7 1   
     7     6    24 1   
     8     6    25 1   
     9     7     8 1   
    10     7     9 1   
    11     7    26 1   
    12     8    13 1   
    13     9    10 1   
    14     9    11 1   
    15     9    27 1   
    16    10    28 1   
    17    11    12 1   
    18    11    13 1   
    19    11    29 1   
    20    12    30 1   
    21    13    14 1   
    22    13    31 1   
    23    14    15 1   
    24    14    23 1   
    25    15    16 2   
    26    15    32 1   
    27    16    17 1   
    28    17    18 1   
    29    17    23 2   
    30    18    19 2   
    31    18    20 1   
    32    20    21 1   
    33    20    33 1   
    34    21    22 2   
    35    21    34 1   
    36    22    23 1   
@<TRIPOS>SUBSTRUCTURE
     1 IMP         1 TEMP              0 ****  ****    0 ROOT
