@<TRIPOS>MOLECULE
ITT
   42    44     1     0     0
SMALL
abcg2


@<TRIPOS>ATOM
      1 PG          48.2110    59.0010    34.0880 p5         1 ITT       1.367900
      2 O1G         49.0700    58.6150    35.2820 o          1 ITT      -0.932500
      3 O2G         46.7130    59.0230    34.3440 o          1 ITT      -0.932500
      4 O3G         48.6380    58.4010    32.7580 o          1 ITT      -0.932500
      5 PB          48.0640    62.0440    34.3540 p5         1 ITT       1.589800
      6 O1B         49.1050    63.1020    34.0100 o          1 ITT      -0.897000
      7 O2B         46.6480    62.3130    33.9480 o          1 ITT      -0.897000
      8 O3B         48.6540    60.6780    33.8090 os         1 ITT      -0.732800
      9 PA          49.0560    62.3380    37.1530 p5         1 ITT       1.477800
     10 O1A         48.5580    61.7830    38.4520 o          1 ITT      -0.867500
     11 O2A         50.4930    62.1670    36.7690 o          1 ITT      -0.867500
     12 O3A         48.0290    61.8220    35.9970 os         1 ITT      -0.693800
     13 O5          48.6360    63.9350    37.0630 os         1 ITT      -0.588400
     14 C5          49.4530    64.9360    37.6170 c3         1 ITT       0.253600
     15 C4          49.3450    66.1550    36.7200 c5         1 ITT       0.096300
     16 O4          50.0990    67.2120    37.3070 os         1 ITT      -0.478000
     17 C3          49.9170    65.9490    35.3080 c5         1 ITT       0.186300
     18 O3          48.9830    65.5870    34.3540 oh         1 ITT      -0.844000
     19 C2          50.4740    67.3420    34.9800 c5         1 ITT       0.098300
     20 O2          49.4590    68.1440    34.4380 oh         1 ITT      -0.765000
     21 C1          50.8400    67.9120    36.3510 c5         1 ITT       0.293300
     22 N9          52.2560    67.8180    36.6630 na         1 ITT      -0.265300
     23 C8          53.0410    66.6980    36.7220 cc         1 ITT       0.459700
     24 N7          54.2680    66.9320    37.0780 nd         1 ITT      -0.571100
     25 C7          54.3070    68.2870    37.2760 ca         1 ITT      -0.038600
     26 C6          55.3040    69.1840    37.6670 ca         1 ITT       0.364300
     27 O6          56.5240    68.7510    37.9220 oh         1 ITT      -0.623300
     28 N1          55.0180    70.4680    37.7770 nb         1 ITT      -0.343000
     29 C10         53.7770    70.8810    37.5100 ca         1 ITT       0.112900
     30 N3          52.7510    70.1440    37.1330 nb         1 ITT      -0.179000
     31 C9          53.0610    68.8570    37.0300 ca         1 ITT       0.096500
     32 H5'1        50.5040    64.6270    37.6750 h1         1 ITT      -0.002800
     33 H5'2        49.1280    65.1840    38.6340 h1         1 ITT      -0.002800
     34 H4          48.2940    66.4610    36.6380 h1         1 ITT       0.069700
     35 H3          50.7480    65.2290    35.3580 h1         1 ITT       0.065700
     36 H1          48.9760    64.5800    34.2350 ho         1 ITT       0.650000
     37 H2          51.3470    67.3020    34.3160 h1         1 ITT       0.038700
     38 H6          48.8830    67.5460    33.9410 ho         1 ITT       0.556000
     39 H7          50.6100    68.9800    36.3910 h2         1 ITT       0.080700
     40 H8          52.6530    65.7160    36.4900 h5         1 ITT       0.121800
     41 HO6         57.0830    69.4980    38.1830 ho         1 ITT       0.456000
     42 H9          53.5990    71.9450    37.6170 h5         1 ITT       0.018100
@<TRIPOS>BOND
     1     1     2 1   
     2     1     3 1   
     3     1     4 1   
     4     1     8 1   
     5     5     6 1   
     6     5     7 1   
     7     5     8 1   
     8     5    12 1   
     9     9    10 1   
    10     9    11 1   
    11     9    12 1   
    12     9    13 1   
    13    13    14 1   
    14    14    15 1   
    15    14    32 1   
    16    14    33 1   
    17    15    16 1   
    18    15    17 1   
    19    15    34 1   
    20    16    21 1   
    21    17    18 1   
    22    17    19 1   
    23    17    35 1   
    24    18    36 1   
    25    19    20 1   
    26    19    21 1   
    27    19    37 1   
    28    20    38 1   
    29    21    22 1   
    30    21    39 1   
    31    22    23 1   
    32    22    31 1   
    33    23    24 2   
    34    23    40 1   
    35    24    25 1   
    36    25    26 ar  
    37    25    31 ar  
    38    26    27 1   
    39    26    28 ar  
    40    27    41 1   
    41    28    29 ar  
    42    29    30 ar  
    43    29    42 1   
    44    30    31 ar  
@<TRIPOS>SUBSTRUCTURE
     1 ITT         1 TEMP              0 ****  ****    0 ROOT
