@<TRIPOS>MOLECULE
IZX
   51    55     1     0     0
SMALL
abcg2


@<TRIPOS>ATOM
      1 C1         -13.8990    -6.4120     7.3540 ca         1 IZX      -0.017800
      2 C2         -14.6010    -5.6860     8.3450 ca         1 IZX      -0.170000
      3 C3         -13.6240    -5.7460     6.1450 ca         1 IZX       0.118100
      4 C4         -15.0240    -4.3770     8.1580 ca         1 IZX      -0.083000
      5 C5         -14.0380    -4.4390     5.9420 ca         1 IZX      -0.157000
      6 C6         -14.7370    -3.7550     6.9460 ca         1 IZX      -0.111000
      7 C7         -13.5740    -7.7410     7.7440 cc         1 IZX      -0.334200
      8 C8         -14.0370    -8.0770     9.0180 cd         1 IZX       0.038000
      9 S9         -14.8310    -6.6810     9.7740 ss         1 IZX       0.038400
     10 C10        -13.9950    -9.2810     9.7310 cf         1 IZX      -0.039500
     11 N11        -12.9740   -10.2380     9.1640 nz         1 IZX      -0.947200
     12 N12        -14.0410    -9.2550    11.1430 nv         1 IZX      -0.541700
     13 O13        -12.9040    -6.4840     5.2220 os         1 IZX      -0.348100
     14 C14        -13.0820    -6.1770     3.8470 c3         1 IZX       0.197300
     15 C15        -14.5170    -6.3650     3.3800 ca         1 IZX      -0.138300
     16 C16        -15.0650    -5.4840     2.4530 ca         1 IZX      -0.076000
     17 C17        -15.2780    -7.4300     3.8600 ca         1 IZX      -0.076000
     18 C18        -16.3690    -5.6650     2.0040 ca         1 IZX      -0.113500
     19 C19        -16.5830    -7.6050     3.4170 ca         1 IZX      -0.113500
     20 C20        -17.1300    -6.7250     2.4860 ca         1 IZX      -0.094000
     21 C21        -12.1760    -7.0960     3.0870 cc         1 IZX       0.508300
     22 O22        -12.0640    -8.3710     3.4710 os         1 IZX      -0.088700
     23 N23        -11.2320    -9.0000     2.5270 nc         1 IZX      -0.383300
     24 N24        -11.5110    -6.8290     2.0100 nd         1 IZX      -0.724000
     25 C25        -10.9390    -8.0440     1.6820 cd         1 IZX       0.627500
     26 C26        -10.0900    -8.2420     0.5050 ca         1 IZX      -0.148500
     27 C27         -9.7620    -7.1520    -0.3050 ca         1 IZX      -0.066000
     28 C28         -9.6080    -9.5150     0.1790 ca         1 IZX      -0.066000
     29 C29         -8.9620    -7.3330    -1.4260 ca         1 IZX      -0.122500
     30 C30         -8.8090    -9.6890    -0.9420 ca         1 IZX      -0.122500
     31 C31         -8.4850    -8.5990    -1.7470 ca         1 IZX      -0.088000
     32 H4         -15.5660    -3.8520     8.9340 ha         1 IZX       0.117000
     33 H5         -13.8300    -3.9360     5.0080 ha         1 IZX       0.111000
     34 H6         -15.0590    -2.7370     6.7690 ha         1 IZX       0.111000
     35 H7         -13.0520    -8.4290     7.0960 ha         1 IZX       0.184000
     36 HN1C       -13.0460   -11.1400     9.6340 hn         1 IZX       0.450000
     37 HN12       -14.4080   -10.0960    11.5670 hn         1 IZX       0.242000
     38 HN1A       -13.1690    -8.9960    11.6050 hn         1 IZX       0.242000
     39 H14        -12.7540    -5.1620     3.6150 h1         1 IZX       0.080700
     40 H16        -14.4750    -4.6530     2.0890 ha         1 IZX       0.123500
     41 H17        -14.8530    -8.1100     4.5870 ha         1 IZX       0.123500
     42 H18        -16.7920    -4.9740     1.2860 ha         1 IZX       0.116000
     43 H19        -17.1740    -8.4290     3.7970 ha         1 IZX       0.116000
     44 H20        -18.1470    -6.8640     2.1410 ha         1 IZX       0.114000
     45 H27        -10.1360    -6.1700    -0.0530 ha         1 IZX       0.132500
     46 H28         -9.8620   -10.3620     0.8010 ha         1 IZX       0.132500
     47 H29         -8.7130    -6.4840    -2.0490 ha         1 IZX       0.117000
     48 H30         -8.4410   -10.6760    -1.1900 ha         1 IZX       0.117000
     49 H31         -7.8620    -8.7390    -2.6220 ha         1 IZX       0.115000
     50 H10        -11.9990    -9.9170     9.2610 hn         1 IZX       0.450000
     51 HN1D       -13.1340   -10.4110     8.1710 hn         1 IZX       0.450000
@<TRIPOS>BOND
     1     1     2 ar  
     2     1     3 ar  
     3     1     7 1   
     4     2     4 ar  
     5     2     9 1   
     6     3     5 ar  
     7     3    13 1   
     8     4     6 ar  
     9     4    32 1   
    10     5     6 ar  
    11     5    33 1   
    12     6    34 1   
    13     7     8 2   
    14     7    35 1   
    15     8     9 1   
    16     8    10 1   
    17    10    11 1   
    18    10    12 2   
    19    11    36 1   
    20    11    50 1   
    21    11    51 1   
    22    12    37 1   
    23    12    38 1   
    24    13    14 1   
    25    14    15 1   
    26    14    21 1   
    27    14    39 1   
    28    15    16 ar  
    29    15    17 ar  
    30    16    18 ar  
    31    16    40 1   
    32    17    19 ar  
    33    17    41 1   
    34    18    20 ar  
    35    18    42 1   
    36    19    20 ar  
    37    19    43 1   
    38    20    44 1   
    39    21    22 1   
    40    21    24 2   
    41    22    23 1   
    42    23    25 2   
    43    24    25 1   
    44    25    26 1   
    45    26    27 ar  
    46    26    28 ar  
    47    27    29 ar  
    48    27    45 1   
    49    28    30 ar  
    50    28    46 1   
    51    29    31 ar  
    52    29    47 1   
    53    30    31 ar  
    54    30    48 1   
    55    31    49 1   
@<TRIPOS>SUBSTRUCTURE
     1 IZX         1 TEMP              0 ****  ****    0 ROOT
