@<TRIPOS>MOLECULE
91N
   40    43     1     0     0
SMALL
abcg2


@<TRIPOS>ATOM
      1 C1          15.4620   -22.0800     2.2340 c5         1 91N       0.322300
      2 C10         19.3760   -16.8090     1.4010 cc         1 91N      -0.096000
      3 C11         20.1970   -15.6730     1.1950 cc         1 91N      -0.124000
      4 C12         20.5280   -15.4920    -0.1180 cd         1 91N      -0.262000
      5 C2          16.7850   -20.0180     2.9920 cc         1 91N       0.521700
      6 C8          16.1690   -23.3980     1.9460 c5         1 91N      -0.122400
      7 C3          16.7540   -23.7720     3.3010 c5         1 91N       0.127300
      8 C3A         16.8650   -20.4930     0.8420 ca         1 91N       0.314500
      9 C4          15.7360   -23.1850     4.2910 c5         1 91N       0.111300
     10 C5          17.2970   -20.4240    -1.3450 ca         1 91N       0.305900
     11 C13         16.3860   -22.6380     5.5400 c3         1 91N       0.238600
     12 C6          18.0810   -19.2850    -1.1860 ca         1 91N      -0.198000
     13 C7          18.2750   -18.6870     0.0690 ca         1 91N       0.052000
     14 C7A         17.6230   -19.3360     1.1320 ca         1 91N       0.069400
     15 C9          19.0830   -17.4900     0.2400 cd         1 91N      -0.114000
     16 N1          17.5460   -19.0670     2.4870 nd         1 91N      -0.614100
     17 N3          16.3530   -20.9140     2.0530 na         1 91N      -0.329300
     18 N4          16.6690   -21.0540    -0.3430 nb         1 91N      -0.669000
     19 O3          16.9000   -25.1820     3.4050 oh         1 91N      -0.740000
     20 O4          15.0360   -22.1380     3.5700 os         1 91N      -0.404000
     21 O5          15.4210   -22.1230     6.4330 os         1 91N      -0.569400
     22 P           15.8020   -20.7050     7.2550 p5         1 91N       1.276900
     23 S8          19.8420   -16.7030    -1.1190 ss         1 91N       0.110000
     24 H091        14.6000   -21.9160     1.5900 h2         1 91N       0.076700
     25 H181        21.1340   -14.7150    -0.5550 h4         1 91N       0.130000
     26 H111        16.5060   -20.0900     4.0350 h5         1 91N       0.185800
     27 H241        15.4240   -24.1410     1.6650 hc         1 91N       0.063700
     28 H242        16.9070   -23.3200     1.1550 hc         1 91N       0.063700
     29 H251        17.7250   -23.2920     3.4440 h1         1 91N       0.050700
     30 H071        15.0000   -23.9490     4.5510 h1         1 91N       0.064700
     31 H211        17.1650   -20.8440    -2.3330 h4         1 91N      -0.003900
     32 H061        16.9450   -23.4550     6.0130 h1         1 91N       0.003700
     33 H062        17.1050   -21.8680     5.2560 h1         1 91N       0.003700
     34 H201        18.5430   -18.8610    -2.0660 ha         1 91N       0.100000
     35 H1          17.4750   -25.3780     4.1520 ho         1 91N       0.507000
     36 OP3         17.0290   -21.0400     8.0950 o          1 91N      -0.924167
     37 H161        19.0040   -17.1270     2.3600 ha         1 91N       0.190000
     38 OP2         14.5340   -20.4560     8.0560 o          1 91N      -0.924167
     39 OP1         16.0750   -19.6730     6.1640 o          1 91N      -0.924167
     40 H171        20.5290   -15.0190     1.9870 ha         1 91N       0.129000
@<TRIPOS>BOND
     1     1     6 1   
     2     1    17 1   
     3     1    20 1   
     4     1    24 1   
     5     2     3 1   
     6     2    15 2   
     7     2    37 1   
     8     3     4 2   
     9     3    40 1   
    10     4    23 1   
    11     4    25 1   
    12     5    16 2   
    13     5    17 1   
    14     5    26 1   
    15     6     7 1   
    16     6    27 1   
    17     6    28 1   
    18     7     9 1   
    19     7    19 1   
    20     7    29 1   
    21     8    14 ar  
    22     8    17 1   
    23     8    18 ar  
    24     9    11 1   
    25     9    20 1   
    26     9    30 1   
    27    10    12 ar  
    28    10    18 ar  
    29    10    31 1   
    30    11    21 1   
    31    11    32 1   
    32    11    33 1   
    33    12    13 ar  
    34    12    34 1   
    35    13    14 ar  
    36    13    15 1   
    37    14    16 1   
    38    15    23 1   
    39    19    35 1   
    40    21    22 1   
    41    22    36 1   
    42    22    38 1   
    43    22    39 1   
@<TRIPOS>SUBSTRUCTURE
     1 91N         1 TEMP              0 ****  ****    0 ROOT
