@<TRIPOS>MOLECULE
9G1
  105   109     1     0     0
SMALL
abcg2


@<TRIPOS>ATOM
      1 C13          2.3980   -12.5310   -13.5560 c          1 9G1       0.729000
      2 C17          4.3480   -17.1010   -13.5890 c3         1 9G1      -0.206067
      3 C21          3.0350   -16.9910   -10.3720 c3         1 9G1      -0.262400
      4 C22          2.6980   -16.2000    -9.1160 c3         1 9G1      -0.206067
      5 C26         -0.0770   -15.5760   -15.5070 c5         1 9G1       0.395500
      6 C28         -1.2890   -16.1970   -17.4260 c5         1 9G1       0.161300
      7 C04         -0.1200   -17.8090   -12.5220 c6         1 9G1      -0.135700
      8 C05         -0.7090   -17.2260   -13.8230 c6         1 9G1       0.163800
      9 C07         -0.5400   -14.9300   -13.2110 c6         1 9G1       0.157800
     10 C08         -0.4830   -15.4530   -11.7700 c6         1 9G1      -0.062400
     11 C09          0.4150   -16.6820   -11.6270 c6         1 9G1      -0.225700
     12 C11          2.6410   -14.5960   -12.0170 c3         1 9G1      -0.262400
     13 C12          2.7920   -14.0220   -13.4240 c3         1 9G1      -0.206067
     14 C18          4.7570   -17.7540   -14.9250 c          1 9G1       0.729000
     15 C23          3.3280   -16.7770    -7.8240 c          1 9G1       0.729000
     16 C29         -2.0080   -17.5270   -17.5390 c3         1 9G1       0.224600
     17 C39         -4.0870   -20.8050   -19.5400 c3         1 9G1       0.224600
     18 C40         -5.5980   -20.8020   -19.7200 c5         1 9G1       0.121300
     19 C42         -6.5220   -19.9540   -21.6810 c5         1 9G1       0.245300
     20 C43         -6.0750   -21.3980   -21.9620 c5         1 9G1       0.247300
     21 C49         -6.1250   -21.9740   -20.5470 c5         1 9G1       0.113300
     22 C52         -4.7720   -18.6970   -22.9730 cc         1 9G1       0.489700
     23 C54         -5.9580   -17.4480   -24.1900 ca         1 9G1      -0.048600
     24 C55         -6.5250   -16.5300   -25.0910 ca         1 9G1       0.412900
     25 C58         -8.5870   -17.2110   -24.3350 ca         1 9G1       0.121900
     26 C60         -6.8450   -18.1870   -23.4220 ca         1 9G1       0.162500
     27 C61          0.1970   -16.2590   -17.7740 c5         1 9G1       0.130300
     28 C63          0.8650   -16.3940   -16.4020 c5         1 9G1       0.129300
     29 N06         -0.0750   -15.9590   -14.1280 n3         1 9G1      -0.762600
     30 N51         -6.0650   -18.9830   -22.6400 na         1 9G1      -0.216300
     31 N53         -4.6620   -17.7820   -23.8910 nd         1 9G1      -0.623100
     32 N56         -5.7890   -15.7680   -25.9060 nv         1 9G1      -1.097900
     33 N57         -7.8590   -16.4370   -25.1370 nb         1 9G1      -0.356000
     34 N59         -8.1730   -18.1040   -23.4560 nb         1 9G1      -0.162000
     35 O14          1.7930   -11.9990   -12.6050 o          1 9G1      -0.738167
     36 O15          2.7160   -12.0000   -14.6370 o          1 9G1      -0.738167
     37 O19          3.9190   -17.7070   -15.8670 o          1 9G1      -0.738167
     38 O20          5.8860   -18.2510   -14.9890 o          1 9G1      -0.738167
     39 O24          3.0850   -16.1360    -6.7840 o          1 9G1      -0.738167
     40 O25          4.0100   -17.8130    -7.9340 o          1 9G1      -0.738167
     41 O27         -1.3650   -15.6850   -16.1010 os         1 9G1      -0.499000
     42 O30         -1.3130   -18.4990   -16.7950 os         1 9G1      -0.615400
     43 O32         -3.4380   -19.8100   -16.1510 o          1 9G1      -0.860000
     44 O33         -1.0640   -20.4490   -15.2670 o          1 9G1      -0.860000
     45 O34         -1.6330   -20.7480   -17.7430 os         1 9G1      -0.720800
     46 O36         -1.4700   -22.5210   -19.4930 o          1 9G1      -0.852000
     47 O37         -2.3210   -23.1520   -17.0990 o          1 9G1      -0.852000
     48 O38         -3.7820   -21.8210   -18.6130 os         1 9G1      -0.611400
     49 O41         -5.9930   -19.6230   -20.4230 os         1 9G1      -0.498000
     50 O44         -6.8610   -22.0730   -22.8650 os         1 9G1      -0.550400
     51 O46         -6.3480   -20.9420   -25.1330 o          1 9G1      -0.920167
     52 O47         -7.2970   -23.3290   -24.9870 o          1 9G1      -0.920167
     53 O48         -4.8600   -22.8540   -24.2890 o          1 9G1      -0.920167
     54 O50         -7.4660   -22.2720   -20.2420 oh         1 9G1      -0.707000
     55 O62          0.5810   -15.0430   -18.3730 oh         1 9G1      -0.759000
     56 O64          2.1580   -15.8670   -16.4010 oh         1 9G1      -0.800000
     57 P10          2.2240   -16.3640   -11.8700 p5         1 9G1       0.918000
     58 P31         -1.9650   -19.9360   -16.3580 p5         1 9G1       1.492800
     59 P35         -2.2290   -22.2020   -18.2460 p5         1 9G1       1.478800
     60 P45         -6.2760   -22.3200   -24.4850 p5         1 9G1       1.266900
     61 H1           4.9720   -17.4940   -12.7860 hc         1 9G1       0.040367
     62 H2           4.5810   -16.0360   -13.6680 hc         1 9G1       0.040367
     63 H3           2.7350   -18.0370   -10.2750 hc         1 9G1       0.091700
     64 H4           4.1110   -16.9840   -10.5590 hc         1 9G1       0.091700
     65 H5           3.0300   -15.1630    -9.2210 hc         1 9G1       0.040367
     66 H6           1.6150   -16.1460    -8.9670 hc         1 9G1       0.040367
     67 H7           0.2500   -14.5270   -15.5390 h2         1 9G1       0.071700
     68 H8          -1.8000   -15.5060   -18.1090 h1         1 9G1       0.042700
     69 H9           0.6790   -18.5050   -12.7870 hc         1 9G1       0.075700
     70 H10         -1.7980   -17.1050   -13.7250 h1         1 9G1       0.082700
     71 H11         -0.5510   -17.9310   -14.6300 h1         1 9G1       0.082700
     72 H12          0.0960   -14.0500   -13.3140 h1         1 9G1       0.052700
     73 H13         -1.5670   -14.6100   -13.4340 h1         1 9G1       0.052700
     74 H14         -0.1860   -14.6580   -11.0870 hc         1 9G1       0.045700
     75 H15         -1.4760   -15.7670   -11.4430 hc         1 9G1       0.045700
     76 H16          0.3610   -17.0120   -10.5880 hc         1 9G1       0.091700
     77 H17          3.5710   -14.4760   -11.4570 hc         1 9G1       0.091700
     78 H18          1.8880   -14.0360   -11.4600 hc         1 9G1       0.091700
     79 H19          2.2070   -14.5840   -14.1530 hc         1 9G1       0.040367
     80 H20          3.8270   -14.1260   -13.7530 hc         1 9G1       0.040367
     81 H21          2.2440   -17.0380   -14.1170 hc         1 9G1       0.091700
     82 H22          2.6880   -18.3640   -13.0570 hc         1 9G1       0.091700
     83 H23         -3.0380   -17.4140   -17.1870 h1         1 9G1       0.029700
     84 H24         -2.0550   -17.8030   -18.5990 h1         1 9G1       0.029700
     85 H25         -3.5810   -20.9680   -20.5000 h1         1 9G1       0.027700
     86 H26         -3.7740   -19.8230   -19.1690 h1         1 9G1       0.027700
     87 H27         -6.0570   -20.7820   -18.7250 h1         1 9G1       0.062700
     88 H28         -7.6160   -19.8910   -21.6860 h2         1 9G1       0.087700
     89 H29         -5.0190   -21.3820   -22.2700 h1         1 9G1       0.061700
     90 H30         -5.4840   -22.8590   -20.4460 h1         1 9G1       0.080700
     91 H31         -3.9410   -19.1900   -22.4920 h5         1 9G1       0.086800
     92 H32         -9.6620   -17.0860   -24.4200 h5         1 9G1      -0.003900
     93 H33          0.4250   -17.1090   -18.4320 h1         1 9G1       0.080700
     94 H34          0.8590   -17.4450   -16.0980 h1         1 9G1       0.095700
     95 H35         -2.3740   -20.2480   -12.1380 hn         1 9G1       0.349500
     96 H36         -1.3730   -19.8700   -13.4970 hn         1 9G1       0.349500
     97 H38         -6.2310   -15.0620   -26.4680 hn         1 9G1       0.472500
     98 H39         -4.7870   -15.7490   -25.8260 hn         1 9G1       0.472500
     99 H47         -7.5080   -22.5680   -19.3280 ho         1 9G1       0.459000
    100 H48          1.5110   -14.9140   -18.1450 ho         1 9G1       0.522000
    101 H49          2.8240   -16.5720   -16.1740 ho         1 9G1       0.590000
    102 C16          2.8720   -17.3090   -13.2740 c3         1 9G1      -0.262400
    103 O03         -1.5300   -18.4300   -10.6530 o          1 9G1      -0.703100
    104 C02         -1.1690   -18.6550   -11.8010 c          1 9G1       0.597100
    105 N01         -1.6560   -19.6640   -12.5360 nt         1 9G1      -0.588000
@<TRIPOS>BOND
     1     1    13 1   
     2     1    35 1   
     3     1    36 1   
     4     2    14 1   
     5     2    61 1   
     6     2    62 1   
     7     2   102 1   
     8     3     4 1   
     9     3    57 1   
    10     3    63 1   
    11     3    64 1   
    12     4    15 1   
    13     4    65 1   
    14     4    66 1   
    15     5    28 1   
    16     5    29 1   
    17     5    41 1   
    18     5    67 1   
    19     6    16 1   
    20     6    27 1   
    21     6    41 1   
    22     6    68 1   
    23     7     8 1   
    24     7    11 1   
    25     7    69 1   
    26     7   104 1   
    27     8    29 1   
    28     8    70 1   
    29     8    71 1   
    30     9    10 1   
    31     9    29 1   
    32     9    72 1   
    33     9    73 1   
    34    10    11 1   
    35    10    74 1   
    36    10    75 1   
    37    11    57 1   
    38    11    76 1   
    39    12    13 1   
    40    12    57 1   
    41    12    77 1   
    42    12    78 1   
    43    13    79 1   
    44    13    80 1   
    45    14    37 1   
    46    14    38 1   
    47    15    39 1   
    48    15    40 1   
    49    16    42 1   
    50    16    83 1   
    51    16    84 1   
    52    17    18 1   
    53    17    48 1   
    54    17    85 1   
    55    17    86 1   
    56    18    21 1   
    57    18    49 1   
    58    18    87 1   
    59    19    20 1   
    60    19    30 1   
    61    19    49 1   
    62    19    88 1   
    63    20    21 1   
    64    20    50 1   
    65    20    89 1   
    66    21    54 1   
    67    21    90 1   
    68    22    30 1   
    69    22    31 2   
    70    22    91 1   
    71    23    24 ar  
    72    23    26 ar  
    73    23    31 1   
    74    24    32 1   
    75    24    33 ar  
    76    25    33 ar  
    77    25    34 ar  
    78    25    92 1   
    79    26    30 1   
    80    26    34 ar  
    81    27    28 1   
    82    27    55 1   
    83    27    93 1   
    84    28    56 1   
    85    28    94 1   
    86    32    97 1   
    87    32    98 1   
    88    42    58 1   
    89    43    58 1   
    90    44    58 1   
    91    45    58 1   
    92    45    59 1   
    93    46    59 1   
    94    47    59 1   
    95    48    59 1   
    96    50    60 1   
    97    51    60 1   
    98    52    60 1   
    99    53    60 1   
   100    54    99 1   
   101    55   100 1   
   102    56   101 1   
   103    57   102 1   
   104    81   102 1   
   105    82   102 1   
   106    95   105 1   
   107    96   105 1   
   108   103   104 2   
   109   104   105 1   
@<TRIPOS>SUBSTRUCTURE
     1 9G1         1 TEMP              0 ****  ****    0 ROOT
