@<TRIPOS>MOLECULE
9S2
  101   109     1     0     0
SMALL
abcg2


@<TRIPOS>ATOM
      1 C13         -1.0650    15.1900    43.1770 c5         1 9S2       0.130300
      2 C20         -2.1060    10.6020    42.2780 c5         1 9S2       0.192300
      3 C21         -3.5230    11.1910    42.1620 c5         1 9S2       0.120300
      4 C22         -4.4430    10.5010    41.1830 c3         1 9S2       0.214600
      5 C28         -7.0180     8.9170    43.2020 c5         1 9S2       0.208300
      6 C02         -6.7490    15.8560    45.9820 ca         1 9S2       0.428900
      7 C04         -5.9570    14.1560    44.6540 ca         1 9S2       0.182900
      8 C06         -4.4610    15.5880    45.4000 ca         1 9S2       0.147500
      9 C07         -5.4230    16.3200    46.0780 ca         1 9S2      -0.116600
     10 C09         -3.5930    17.2860    46.4670 cc         1 9S2       0.404700
     11 C11         -1.9430    15.8950    45.2250 c5         1 9S2       0.289300
     12 C14         -2.0760    14.5050    42.2520 c3         1 9S2       0.230600
     13 C29         -7.8140    10.0370    43.8660 c5         1 9S2       0.125300
     14 C31         -9.1970     9.3990    44.0310 c5         1 9S2       0.269300
     15 C33        -11.2350    10.4880    44.9830 cc         1 9S2       0.411700
     16 C35        -10.7430    10.6570    47.0250 ca         1 9S2      -0.113600
     17 C36        -10.6560    10.8810    48.4120 ca         1 9S2       0.427900
     18 C39         -8.5600     9.9390    48.3340 ca         1 9S2       0.172900
     19 C41         -9.6470    10.0560    46.4260 ca         1 9S2       0.141500
     20 C43         -7.7410     7.6420    43.6780 c5         1 9S2       0.089300
     21 C44         -6.9410     6.8070    44.6690 c3         1 9S2       0.176600
     22 C47         -3.0680    10.7900    44.3880 c5         1 9S2       0.251300
     23 C49         -4.2090     9.0040    45.7460 cc         1 9S2       0.520700
     24 C51         -4.3810     9.9570    47.6220 ca         1 9S2      -0.068600
     25 C52         -4.5940    10.3510    48.9540 ca         1 9S2       0.409900
     26 C55         -3.5990    12.3510    48.4250 ca         1 9S2       0.122900
     27 C57         -3.7440    10.8670    46.7940 ca         1 9S2       0.115500
     28 C58         -2.1950     9.8250    43.5930 c5         1 9S2       0.250300
     29 C64         -0.4840    14.3190    44.2820 c5         1 9S2       0.139300
     30 C66         -1.5910    14.4100    45.3240 c5         1 9S2       0.091300
     31 N01         -7.7710    16.4670    46.5830 nv         1 9S2      -1.093900
     32 N03         -6.9800    14.7570    45.2560 nb         1 9S2      -0.314000
     33 N05         -4.6830    14.4990    44.6660 nb         1 9S2      -0.147000
     34 N08         -4.8590    17.3820    46.7380 nd         1 9S2      -0.608100
     35 N10         -3.2760    16.2210    45.6680 na         1 9S2      -0.264300
     36 N32         -9.9780     9.9580    45.1010 na         1 9S2      -0.266300
     37 N34        -11.7250    10.9210    46.1040 nd         1 9S2      -0.605100
     38 N37        -11.6400    11.4460    49.1130 nv         1 9S2      -1.093900
     39 N38         -9.5360    10.5050    49.0380 nb         1 9S2      -0.316000
     40 N40         -8.5270     9.6750    47.0400 nb         1 9S2      -0.141000
     41 N48         -3.6460    10.2420    45.5820 na         1 9S2      -0.219300
     42 N50         -4.6620     8.7980    46.9470 nd         1 9S2      -0.620100
     43 N53         -5.1770     9.5590    49.8550 nv         1 9S2      -1.098900
     44 N54         -4.2000    11.5770    49.3190 nb         1 9S2      -0.342000
     45 N56         -3.3190    12.0800    47.1580 nb         1 9S2      -0.214000
     46 O12         -1.7770    16.2300    43.8740 os         1 9S2      -0.488000
     47 O15         -1.5490    13.8020    41.1500 os         1 9S2      -0.615400
     48 O17          0.8180    12.9540    41.6270 o          1 9S2      -0.821000
     49 O18         -0.7740    11.7820    39.9040 o          1 9S2      -0.821000
     50 O19         -1.1310    11.6110    42.4420 os         1 9S2      -0.602400
     51 O23         -4.5380     9.1180    41.4530 os         1 9S2      -0.569400
     52 O25         -5.6620     6.8970    41.4970 o          1 9S2      -0.818500
     53 O26         -6.1470     8.5410    39.5150 o          1 9S2      -0.818500
     54 O27         -7.0550     9.0440    41.7980 os         1 9S2      -0.585400
     55 O42         -8.9560     8.0510    44.3040 os         1 9S2      -0.473000
     56 O46         -4.0750    11.1790    43.4860 os         1 9S2      -0.511000
     57 O59         -1.0170     9.5390    44.2360 os         1 9S2      -0.538400
     58 O61         -1.6450     7.1340    44.8960 o          1 9S2      -0.919500
     59 O62         -0.3620     7.5750    42.7180 o          1 9S2      -0.919500
     60 O63          0.7890     7.9770    44.9920 o          1 9S2      -0.919500
     61 O65          0.7040    14.9210    44.7430 oh         1 9S2      -0.736000
     62 O67         -1.2240    14.0150    46.6080 oh         1 9S2      -0.750000
     63 P16         -0.5390    12.5010    41.1930 p5         1 9S2       1.397800
     64 P24         -5.8600     8.2890    40.9530 p5         1 9S2       1.404800
     65 P60         -0.5080     7.8820    44.2050 p5         1 9S2       1.264900
     66 H131        -0.2750    15.6510    42.5780 h1         1 9S2       0.093700
     67 H201        -1.8580     9.9570    41.4320 h1         1 9S2       0.116700
     68 H211        -3.4690    12.2250    41.8100 h1         1 9S2       0.032700
     69 H222        -4.0370    10.6730    40.1800 h1         1 9S2       0.022700
     70 H221        -5.4200    10.9910    41.2250 h1         1 9S2       0.022700
     71 H281        -5.9850     8.9520    43.5570 h1         1 9S2       0.110700
     72 H041        -6.2030    13.2680    44.0820 h5         1 9S2       0.078100
     73 H091        -2.8250    17.9590    46.8210 h5         1 9S2       0.046800
     74 H111        -1.2700    16.4840    45.8580 h2         1 9S2       0.056700
     75 H142        -2.6980    15.2950    41.8260 h1         1 9S2       0.028700
     76 H141        -2.7480    13.8700    42.8380 h1         1 9S2       0.028700
     77 H291        -7.3820    10.1910    44.8620 h1         1 9S2       0.077700
     78 H311        -9.7830     9.5380    43.1130 h2         1 9S2       0.064700
     79 H331       -11.7330    10.5260    44.0250 h5         1 9S2       0.056800
     80 H391        -7.6770     9.6620    48.9000 h5         1 9S2       0.065100
     81 H431        -7.9860     7.0290    42.8040 h1         1 9S2       0.073700
     82 H441        -6.7470     7.4100    45.5640 h1         1 9S2       0.020200
     83 H442        -7.5640     5.9600    44.9880 h1         1 9S2       0.020200
     84 H471        -2.4720    11.6480    44.7150 h2         1 9S2       0.069700
     85 H491        -4.2430     8.2800    44.9480 h5         1 9S2       0.136800
     86 H551        -3.2900    13.3280    48.7820 h5         1 9S2       0.014100
     87 H581        -2.7940     8.9300    43.3770 h1         1 9S2       0.065700
     88 H641        -0.3100    13.2890    43.9680 h1         1 9S2       0.155700
     89 H661        -2.4410    13.8210    44.9690 h1         1 9S2       0.111700
     90 H011        -8.7010    16.0940    46.5070 hn         1 9S2       0.487000
     91 H012        -7.6270    17.2830    47.1510 hn         1 9S2       0.487000
     92 H371       -11.5310    11.6090    50.0990 hn         1 9S2       0.487500
     93 H372       -12.4830    11.7600    48.6670 hn         1 9S2       0.487500
     94 H531        -5.2420     9.8510    50.8160 hn         1 9S2       0.482000
     95 H532        -5.3980     8.6040    49.6340 hn         1 9S2       0.482000
     96 H451        -5.7020     6.4970    43.1640 ho         1 9S2       0.590000
     97 H651         0.9520    14.4870    45.5660 ho         1 9S2       0.510000
     98 H671        -1.7900    13.2550    46.8320 ho         1 9S2       0.564000
     99 O30         -7.8170    11.2110    43.1150 oh         1 9S2      -0.663000
    100 H301        -8.1650    11.9210    43.6640 ho         1 9S2       0.481000
    101 O45         -5.7210     6.3590    44.1380 oh         1 9S2      -0.744000
@<TRIPOS>BOND
     1     1    12 1   
     2     1    29 1   
     3     1    46 1   
     4     1    66 1   
     5     2     3 1   
     6     2    28 1   
     7     2    50 1   
     8     2    67 1   
     9     3     4 1   
    10     3    56 1   
    11     3    68 1   
    12     4    51 1   
    13     4    69 1   
    14     4    70 1   
    15     5    13 1   
    16     5    20 1   
    17     5    54 1   
    18     5    71 1   
    19     6     9 ar  
    20     6    31 1   
    21     6    32 ar  
    22     7    32 ar  
    23     7    33 ar  
    24     7    72 1   
    25     8     9 ar  
    26     8    33 ar  
    27     8    35 1   
    28     9    34 1   
    29    10    34 2   
    30    10    35 1   
    31    10    73 1   
    32    11    30 1   
    33    11    35 1   
    34    11    46 1   
    35    11    74 1   
    36    12    47 1   
    37    12    75 1   
    38    12    76 1   
    39    13    14 1   
    40    13    77 1   
    41    13    99 1   
    42    14    36 1   
    43    14    55 1   
    44    14    78 1   
    45    15    36 1   
    46    15    37 2   
    47    15    79 1   
    48    16    17 ar  
    49    16    19 ar  
    50    16    37 1   
    51    17    38 1   
    52    17    39 ar  
    53    18    39 ar  
    54    18    40 ar  
    55    18    80 1   
    56    19    36 1   
    57    19    40 ar  
    58    20    21 1   
    59    20    55 1   
    60    20    81 1   
    61    21    82 1   
    62    21    83 1   
    63    21   101 1   
    64    22    28 1   
    65    22    41 1   
    66    22    56 1   
    67    22    84 1   
    68    23    41 1   
    69    23    42 2   
    70    23    85 1   
    71    24    25 ar  
    72    24    27 ar  
    73    24    42 1   
    74    25    43 1   
    75    25    44 ar  
    76    26    44 ar  
    77    26    45 ar  
    78    26    86 1   
    79    27    41 1   
    80    27    45 ar  
    81    28    57 1   
    82    28    87 1   
    83    29    30 1   
    84    29    61 1   
    85    29    88 1   
    86    30    62 1   
    87    30    89 1   
    88    31    90 1   
    89    31    91 1   
    90    38    92 1   
    91    38    93 1   
    92    43    94 1   
    93    43    95 1   
    94    47    63 1   
    95    48    63 1   
    96    49    63 1   
    97    50    63 1   
    98    51    64 1   
    99    52    64 1   
   100    53    64 1   
   101    54    64 1   
   102    57    65 1   
   103    58    65 1   
   104    59    65 1   
   105    60    65 1   
   106    61    97 1   
   107    62    98 1   
   108    96   101 1   
   109    99   100 1   
@<TRIPOS>SUBSTRUCTURE
     1 9S2         1 TEMP              0 ****  ****    0 ROOT
