@<TRIPOS>MOLECULE
9SN
   50    53     1     0     0
SMALL
abcg2


@<TRIPOS>ATOM
      1 C5          39.1920    -3.3790    16.4420 cc         1 9SN       0.440700
      2 N1          40.3270    -0.0640    18.9360 nv         1 9SN      -1.070900
      3 C7          40.9290    -4.6380    15.0470 c5         1 9SN       0.314300
      4 C9          39.5890    -6.4790    14.4670 c5         1 9SN       0.157300
      5 C10         38.1080    -6.7470    14.4920 c3         1 9SN       0.225600
      6 C3          40.4250    -1.9070    17.3750 ca         1 9SN      -0.088600
      7 C2          41.0190    -0.8570    18.0990 ca         1 9SN       0.435900
      8 C16         40.2770    -6.8130    15.7900 c5         1 9SN       0.087300
      9 C18         41.4850    -5.8630    15.7800 c5         1 9SN       0.097300
     10 C20         41.2700    -2.6570    16.5600 ca         1 9SN       0.118500
     11 C22         43.0370    -1.4620    17.1430 ca         1 9SN       0.162900
     12 C24         36.3420    -3.6890    13.4280 c          1 9SN       0.670700
     13 C25         36.0300    -2.6030    14.3870 ca         1 9SN      -0.246600
     14 C27         36.1200    -1.2660    13.9620 ca         1 9SN       0.255000
     15 C28         35.9090    -0.1790    14.7750 ca         1 9SN      -0.241000
     16 C29         35.5920    -0.4230    16.1120 ca         1 9SN      -0.029000
     17 C30         35.4830    -1.7100    16.5880 ca         1 9SN      -0.230000
     18 C31         35.6920    -2.8240    15.7520 ca         1 9SN       0.391000
     19 F33         36.3930    -1.0090    12.6640 f          1 9SN      -0.167000
     20 N21         42.5880    -2.4790    16.4100 nb         1 9SN      -0.209000
     21 N23         42.3430    -0.6600    17.9580 nb         1 9SN      -0.307000
     22 N32         35.6380    -4.0690    16.3150 nv         1 9SN      -1.101000
     23 N4          39.1280    -2.3760    17.2850 nd         1 9SN      -0.568100
     24 N6          40.4640    -3.5980    15.9650 na         1 9SN      -0.304300
     25 O11         37.5620    -6.5210    13.1860 os         1 9SN      -0.582400
     26 O13         35.2350    -7.2710    13.9160 o          1 9SN      -0.798000
     27 O14         35.7190    -4.8500    13.7370 os         1 9SN      -0.594500
     28 O15         35.6790    -6.2660    11.5620 o          1 9SN      -0.798000
     29 O17         40.6480    -8.1780    15.8190 oh         1 9SN      -0.710000
     30 O19         42.5370    -6.4040    15.0010 oh         1 9SN      -0.707000
     31 O26         37.0720    -3.5710    12.4720 o          1 9SN      -0.457000
     32 O8          39.8420    -5.0770    14.2610 os         1 9SN      -0.416000
     33 P12         35.9720    -6.3520    13.0110 p5         1 9SN       1.415800
     34 HC5         38.3570    -3.9790    16.1270 h5         1 9SN       0.093800
     35 HN1B        40.7790     0.7360    19.3420 hn         1 9SN       0.499000
     36 HN1A        39.3240    -0.1160    18.9670 hn         1 9SN       0.499000
     37 HC7         41.6970    -4.1890    14.4210 h2         1 9SN       0.119700
     38 HC9         40.0570    -7.0480    13.6600 h1         1 9SN       0.093700
     39 H10B        37.9400    -7.7840    14.7850 h1         1 9SN       0.033700
     40 H10A        37.6290    -6.0960    15.2240 h1         1 9SN       0.033700
     41 HC16        39.6230    -6.5690    16.6290 h1         1 9SN       0.054700
     42 HC18        41.8310    -5.6090    16.7820 h1         1 9SN       0.063700
     43 HC22        44.0980    -1.2540    17.0730 h5         1 9SN       0.039100
     44 HC28        35.9800     0.8190    14.3710 ha         1 9SN       0.121000
     45 HC29        35.4220     0.4100    16.7790 ha         1 9SN       0.097000
     46 HC30        35.2390    -1.8870    17.6260 ha         1 9SN       0.104000
     47 H32B        35.2370    -4.1280    17.2350 hn         1 9SN       0.487000
     48 H32A        35.4670    -4.8550    15.7130 hn         1 9SN       0.487000
     49 HO17        40.7020    -8.4720    16.7340 ho         1 9SN       0.507000
     50 HO19        42.5210    -7.3620    15.1320 ho         1 9SN       0.520000
@<TRIPOS>BOND
     1     1    23 2   
     2     1    24 1   
     3     1    34 1   
     4     2     7 1   
     5     2    35 1   
     6     2    36 1   
     7     3     9 1   
     8     3    24 1   
     9     3    32 1   
    10     3    37 1   
    11     4     5 1   
    12     4     8 1   
    13     4    32 1   
    14     4    38 1   
    15     5    25 1   
    16     5    39 1   
    17     5    40 1   
    18     6     7 ar  
    19     6    10 ar  
    20     6    23 1   
    21     7    21 ar  
    22     8     9 1   
    23     8    29 1   
    24     8    41 1   
    25     9    30 1   
    26     9    42 1   
    27    10    20 ar  
    28    10    24 1   
    29    11    20 ar  
    30    11    21 ar  
    31    11    43 1   
    32    12    13 1   
    33    12    27 1   
    34    12    31 2   
    35    13    14 ar  
    36    13    18 ar  
    37    14    15 ar  
    38    14    19 1   
    39    15    16 ar  
    40    15    44 1   
    41    16    17 ar  
    42    16    45 1   
    43    17    18 ar  
    44    17    46 1   
    45    18    22 1   
    46    22    47 1   
    47    22    48 1   
    48    25    33 1   
    49    26    33 1   
    50    27    33 1   
    51    28    33 1   
    52    29    49 1   
    53    30    50 1   
@<TRIPOS>SUBSTRUCTURE
     1 9SN         1 TEMP              0 ****  ****    0 ROOT
