@<TRIPOS>MOLECULE
P00
   39    39     1     0     0
SMALL
abcg2


@<TRIPOS>ATOM
      1 O23         68.7080    40.3690    37.0930 o          1 P00      -0.913500
      2 P21         68.1560    41.7850    37.0680 p5         1 P00       1.252900
      3 O24         69.1830    42.8860    37.3460 o          1 P00      -0.913500
      4 O22         67.1970    42.1050    35.9260 o          1 P00      -0.913500
      5 O20         67.1560    41.7600    38.4730 os         1 P00      -0.580400
      6 C19         66.3930    42.9030    38.7190 c3         1 P00       0.266900
      7 C5          65.9990    42.9550    40.1720 ca         1 P00      -0.014300
      8 C6          64.6730    42.8000    40.5360 ca         1 P00       0.269900
      9 N1          64.2390    42.8410    41.7900 nb         1 P00      -0.686000
     10 C2          65.1070    43.0370    42.7680 ca         1 P00       0.196300
     11 C7          64.5860    43.0780    44.1750 c3         1 P00      -0.124400
     12 C3          66.4780    43.2080    42.5100 ca         1 P00       0.094100
     13 O8          67.3620    43.3940    43.5050 oh         1 P00      -0.513100
     14 C4          66.9380    43.1700    41.1930 ca         1 P00      -0.100900
     15 C9          68.3470    43.3300    40.8220 ce         1 P00       0.423800
     16 N10         69.1250    44.1190    41.4440 n2         1 P00      -0.354700
     17 O11         70.3920    44.0590    40.9360 os         1 P00      -0.298000
     18 C12         71.0900    45.2730    41.1710 c3         1 P00       0.172600
     19 C13         70.5830    46.4190    40.3140 c3         1 P00      -0.065400
     20 C14         70.5340    46.0940    38.8180 c3         1 P00       0.023500
     21 N16         71.8220    45.5850    38.3610 n8         1 P00      -1.041200
     22 C15         70.0920    47.3360    38.0010 c          1 P00       0.723000
     23 O18         69.1040    47.9590    38.4360 o          1 P00      -0.762500
     24 O17         70.7350    47.5920    36.9620 o          1 P00      -0.762500
     25 H3          66.9380    43.8250    38.4690 h1         1 P00       0.024700
     26 H4          65.4750    42.9210    38.1170 h1         1 P00       0.024700
     27 H5          63.9210    42.6370    39.7700 h4         1 P00       0.011100
     28 H6          63.5060    42.9560    44.1710 hc         1 P00       0.020700
     29 H7          65.0050    42.2790    44.7940 hc         1 P00       0.020700
     30 H8          64.8120    44.0260    44.6680 hc         1 P00       0.020700
     31 H9          66.9450    43.2810    44.3660 ho         1 P00       0.430000
     32 H10         68.6960    42.7820    39.9490 h4         1 P00       0.100800
     33 H11         72.1280    45.0450    40.9250 h1         1 P00       0.012700
     34 H12         71.0440    45.5340    42.2340 h1         1 P00       0.012700
     35 H13         71.2540    47.2670    40.4850 hc         1 P00       0.025700
     36 H14         69.5940    46.7270    40.6560 hc         1 P00       0.025700
     37 H15         69.7400    45.3490    38.6590 h1         1 P00       0.089700
     38 H16         71.8060    44.5740    38.3450 hn         1 P00       0.402000
     39 H17         71.9420    45.8920    37.4040 hn         1 P00       0.402000
@<TRIPOS>BOND
     1     1     2 1   
     2     2     3 1   
     3     2     4 1   
     4     2     5 1   
     5     5     6 1   
     6     6     7 1   
     7     6    25 1   
     8     6    26 1   
     9     7     8 ar  
    10     7    14 ar  
    11     8     9 ar  
    12     8    27 1   
    13     9    10 ar  
    14    10    11 1   
    15    10    12 ar  
    16    11    28 1   
    17    11    29 1   
    18    11    30 1   
    19    12    13 1   
    20    12    14 ar  
    21    13    31 1   
    22    14    15 1   
    23    15    16 2   
    24    15    32 1   
    25    16    17 1   
    26    17    18 1   
    27    18    19 1   
    28    18    33 1   
    29    18    34 1   
    30    19    20 1   
    31    19    35 1   
    32    19    36 1   
    33    20    21 1   
    34    20    22 1   
    35    20    37 1   
    36    21    38 1   
    37    21    39 1   
    38    22    23 1   
    39    22    24 1   
@<TRIPOS>SUBSTRUCTURE
     1 P00         1 TEMP              0 ****  ****    0 ROOT
