@<TRIPOS>MOLECULE
P2H
   35    36     1     0     0
SMALL
abcg2


@<TRIPOS>ATOM
      1 C7           8.8810    18.3420   152.0960 c3         1 P2H       0.050600
      2 C8           8.0690    19.1920   151.1220 c3         1 P2H      -0.333000
      3 P9           6.2850    18.4750   151.1430 p5         1 P2H       1.291500
      4 O10          6.4510    16.9870   151.4730 o          1 P2H      -0.901833
      5 O11          5.4150    19.2130   152.1530 o          1 P2H      -0.901833
      6 N12         10.3420    18.6170   152.0630 na         1 P2H       0.110300
      7 O12          5.8850    18.7050   149.6700 o          1 P2H      -0.901833
      8 C13         11.1120    17.9560   151.1810 ca         1 P2H      -0.063000
      9 O13          8.5400    18.8840   149.7780 oh         1 P2H      -0.744000
     10 C14         12.4550    18.2420   151.0900 ca         1 P2H      -0.191000
     11 P14          8.3290    21.0410   151.4570 p5         1 P2H       1.291500
     12 C15         13.0050    19.2080   151.9230 ca         1 P2H      -0.091000
     13 O15          8.1780    21.1920   152.9790 o          1 P2H      -0.901833
     14 C16         12.2010    19.8900   152.8370 cp         1 P2H      -0.088000
     15 O16          7.2930    21.8250   150.6500 o          1 P2H      -0.901833
     16 C17         10.8470    19.5720   152.8540 ca         1 P2H       0.038700
     17 O17          9.7640    21.3230   150.9890 o          1 P2H      -0.901833
     18 C18         12.7280    20.9330   153.7400 cp         1 P2H       0.014000
     19 C19         14.0620    20.9020   154.1640 ca         1 P2H      -0.094000
     20 C20         14.5600    21.8830   155.0110 ca         1 P2H      -0.133000
     21 C21         13.7340    22.9120   155.4530 ca         1 P2H      -0.151000
     22 C22         12.4060    22.9510   155.0400 ca         1 P2H      -0.133000
     23 C23         11.9050    21.9730   154.1910 ca         1 P2H      -0.094000
     24 H7           8.5500    18.5180   153.1140 h1         1 P2H       0.069700
     25 H7A          8.7580    17.2920   151.8530 h1         1 P2H       0.069700
     26 H13         10.6150    17.2150   150.5750 h4         1 P2H       0.164000
     27 HO13         7.6950    18.7980   149.2860 ho         1 P2H       0.484000
     28 H14         13.0630    17.7100   150.3740 ha         1 P2H       0.090000
     29 H15         14.0580    19.4400   151.8460 ha         1 P2H       0.080000
     30 H17         10.1260    20.0670   153.4880 h4         1 P2H       0.222000
     31 H19         14.7110    20.0970   153.8470 ha         1 P2H       0.147500
     32 H20         15.5930    21.8390   155.3320 ha         1 P2H       0.090000
     33 H21         14.1220    23.6760   156.1140 ha         1 P2H       0.076000
     34 H22         11.7570    23.7510   155.3750 ha         1 P2H       0.090000
     35 H23         10.8750    22.0280   153.8650 ha         1 P2H       0.147500
@<TRIPOS>BOND
     1     1     2 1   
     2     1     6 1   
     3     1    24 1   
     4     1    25 1   
     5     2     3 1   
     6     2     9 1   
     7     2    11 1   
     8     3     4 1   
     9     3     5 1   
    10     3     7 1   
    11     6     8 1   
    12     6    16 2   
    13     8    10 ar  
    14     8    26 1   
    15     9    27 1   
    16    10    12 ar  
    17    10    28 1   
    18    11    13 1   
    19    11    15 1   
    20    11    17 1   
    21    12    14 ar  
    22    12    29 1   
    23    14    16 ar  
    24    14    18 1   
    25    16    30 1   
    26    18    19 ar  
    27    18    23 ar  
    28    19    20 ar  
    29    19    31 1   
    30    20    21 ar  
    31    20    32 1   
    32    21    22 ar  
    33    21    33 1   
    34    22    23 ar  
    35    22    34 1   
    36    23    35 1   
@<TRIPOS>SUBSTRUCTURE
     1 P2H         1 TEMP              0 ****  ****    0 ROOT
