@<TRIPOS>MOLECULE
P3B
   43    44     1     0     0
SMALL
abcg2


@<TRIPOS>ATOM
      1 OAH         25.8260   -16.0440   -48.4700 o          1 P3B      -0.915167
      2 PBA         25.9230   -16.6620   -49.8620 p5         1 P3B       1.250900
      3 OAI         24.6340   -16.5430   -50.6800 o          1 P3B      -0.915167
      4 OAC         26.6060   -18.0210   -49.9320 o          1 P3B      -0.915167
      5 OAQ         27.0630   -15.6850   -50.6940 os         1 P3B      -0.574400
      6 CAM         26.7690   -14.3230   -50.8100 c3         1 P3B       0.284800
      7 CAV         27.4920   -13.7160   -51.9790 cc         1 P3B      -0.083200
      8 CAL         28.4860   -12.8210   -51.7440 cd         1 P3B      -0.072000
      9 NAP         29.1650   -12.2220   -52.7440 na         1 P3B      -0.677000
     10 CAU         28.8890   -12.4850   -54.0570 cd         1 P3B      -0.051200
     11 CAA         29.6890   -11.7810   -55.1040 c3         1 P3B      -0.001900
     12 CAW         27.9020   -13.3750   -54.3630 cc         1 P3B       0.116100
     13 OAE         27.6590   -13.6140   -55.6640 oh         1 P3B      -0.624100
     14 CAX         27.1400   -14.0560   -53.3370 cc         1 P3B      -0.049000
     15 CAJ         26.1380   -14.9650   -53.6320 cf         1 P3B      -0.012400
     16 NAO         25.7980   -15.2110   -54.9320 nf         1 P3B      -0.686300
     17 CAT         24.9060   -16.0530   -55.3350 ce         1 P3B       0.466600
     18 CAK         24.0800   -16.8850   -54.4830 ce         1 P3B      -0.338600
     19 CAS         23.3340   -17.8970   -54.9620 cf         1 P3B      -0.143400
     20 CAR         22.4260   -18.7100   -54.0460 c          1 P3B       0.695200
     21 OAD         21.8200   -19.6590   -54.5830 o          1 P3B      -0.706000
     22 OAB         22.3550   -18.3600   -52.8520 o          1 P3B      -0.706000
     23 CAN         23.3540   -18.2460   -56.4180 c6         1 P3B      -0.072200
     24 CAY         24.5350   -17.6500   -57.1740 c6         1 P3B       0.158300
     25 OAF         24.3730   -17.7760   -58.5680 oh         1 P3B      -0.680000
     26 CAZ         24.6610   -16.1740   -56.8300 c6         1 P3B       0.130000
     27 OAG         25.6750   -15.6000   -57.6070 oh         1 P3B      -0.656000
     28 H3          27.0550   -13.7690   -49.9030 h1         1 P3B      -0.002800
     29 H4          25.6910   -14.1530   -50.9430 h1         1 P3B      -0.002800
     30 H5          28.7800   -12.5380   -50.7430 h4         1 P3B       0.176000
     31 H6          30.4390   -11.1280   -54.6590 hc         1 P3B       0.013367
     32 H7          30.2090   -12.4880   -55.7510 hc         1 P3B       0.013367
     33 H8          29.0540   -11.1660   -55.7420 hc         1 P3B       0.013367
     34 H9          26.9070   -14.2740   -55.6900 ho         1 P3B       0.530000
     35 H10         25.6460   -15.4920   -52.8220 h4         1 P3B       0.275000
     36 H11         24.0640   -16.6930   -53.4160 ha         1 P3B       0.286000
     37 H13         22.4270   -17.8990   -56.8910 hc         1 P3B       0.045200
     38 H14         25.4570   -18.1550   -56.8440 h1         1 P3B       0.048700
     39 H15         24.2750   -18.7120   -58.7700 ho         1 P3B       0.422000
     40 H16         23.6880   -15.7010   -57.0530 h1         1 P3B       0.028700
     41 H17         25.5820   -14.6440   -57.5680 ho         1 P3B       0.434000
     42 H18         29.8930   -11.5630   -52.5190 hn         1 P3B       0.454000
     43 H19         23.3540   -19.3320   -56.5340 hc         1 P3B       0.045200
@<TRIPOS>BOND
     1     1     2 1   
     2     2     3 1   
     3     2     4 1   
     4     2     5 1   
     5     5     6 1   
     6     6     7 1   
     7     6    28 1   
     8     6    29 1   
     9     7     8 2   
    10     7    14 1   
    11     8     9 1   
    12     8    30 1   
    13     9    10 1   
    14     9    42 1   
    15    10    11 1   
    16    10    12 2   
    17    11    31 1   
    18    11    32 1   
    19    11    33 1   
    20    12    13 1   
    21    12    14 1   
    22    13    34 1   
    23    14    15 2   
    24    15    16 1   
    25    15    35 1   
    26    16    17 2   
    27    17    18 1   
    28    17    26 1   
    29    18    19 2   
    30    18    36 1   
    31    19    20 1   
    32    19    23 1   
    33    20    21 1   
    34    20    22 1   
    35    23    24 1   
    36    23    37 1   
    37    23    43 1   
    38    24    25 1   
    39    24    26 1   
    40    24    38 1   
    41    25    39 1   
    42    26    27 1   
    43    26    40 1   
    44    27    41 1   
@<TRIPOS>SUBSTRUCTURE
     1 P3B         1 TEMP              0 ****  ****    0 ROOT
