@<TRIPOS>MOLECULE
P3F
   49    50     1     0     0
SMALL
abcg2


@<TRIPOS>ATOM
      1 O4          -7.4560    11.2260    47.4250 o          1 P3F      -0.887167
      2 P1          -8.1020    11.1900    48.7970 p5         1 P3F       1.289900
      3 O2          -9.0250     9.9480    48.9770 o          1 P3F      -0.887167
      4 O3          -8.7140    12.4720    49.3190 o          1 P3F      -0.887167
      5 O1          -6.8280    10.9530    49.8970 os         1 P3F      -0.582400
      6 C5          -5.8900     9.9310    49.6910 c3         1 P3F       0.287900
      7 C4          -5.3640     9.4560    51.0250 ca         1 P3F      -0.057300
      8 C3          -4.0140     9.4830    51.3270 ca         1 P3F       0.279900
      9 N1          -3.5170     9.1000    52.4980 nb         1 P3F      -0.680000
     10 C2          -4.3330     8.6830    53.4530 ca         1 P3F       0.222300
     11 C1          -3.7370     8.2570    54.7620 c3         1 P3F      -0.132400
     12 C17         -5.7220     8.6330    53.2550 ca         1 P3F       0.097100
     13 O9          -6.5780     8.2130    54.2030 oh         1 P3F      -0.511100
     14 C6          -6.2400     9.0110    52.0250 ca         1 P3F      -0.083900
     15 C7          -7.6570     8.9960    51.6610 ce         1 P3F       0.361800
     16 N2          -8.5620     9.6030    52.3150 n2         1 P3F      -0.411300
     17 N3          -9.7020     9.7570    51.5820 ns         1 P3F      -0.303900
     18 C8         -10.6750    10.5770    52.0320 c          1 P3F       0.601100
     19 O5         -10.7990    10.9560    53.1830 o          1 P3F      -0.635100
     20 C9         -11.5970    11.0820    50.9250 c3         1 P3F       0.002000
     21 N4         -11.6320    10.2660    49.7390 ns         1 P3F      -0.468900
     22 C10        -12.4230     9.1910    49.6580 c          1 P3F       0.591700
     23 O6         -13.2610     8.8710    50.4880 o          1 P3F      -0.656100
     24 C11        -12.1650     8.3240    48.4550 ca         1 P3F      -0.042600
     25 C16        -12.4200     8.7030    47.1360 ca         1 P3F      -0.156300
     26 C18        -12.9840    10.0540    46.8080 c3         1 P3F       0.353300
     27 F2         -13.8990    10.4510    47.7010 f          1 P3F      -0.113000
     28 F1         -13.5850    10.0680    45.6130 f          1 P3F      -0.113000
     29 F3         -12.0370    11.0010    46.7690 f          1 P3F      -0.113000
     30 C12        -11.6580     7.0550    48.7100 ca         1 P3F      -0.069000
     31 C13        -11.3750     6.1820    47.6720 ca         1 P3F      -0.094000
     32 C14        -11.6160     6.5670    46.3620 ca         1 P3F      -0.126000
     33 C15        -12.1430     7.8210    46.0960 ca         1 P3F      -0.074000
     34 H51         -5.0440    10.2760    49.0830 h1         1 P3F       0.010700
     35 H52         -6.3190     9.0750    49.1500 h1         1 P3F       0.010700
     36 H3          -3.2990     9.8340    50.5900 h4         1 P3F       0.009100
     37 H11         -3.9600     7.2120    54.9940 hc         1 P3F       0.029367
     38 H12A        -4.1010     8.8630    55.5960 hc         1 P3F       0.029367
     39 H13A        -2.6550     8.3610    54.7270 hc         1 P3F       0.029367
     40 HO9         -6.1090     7.9150    54.9890 ho         1 P3F       0.439000
     41 H7          -7.8700     8.5690    50.6820 h4         1 P3F       0.024800
     42 HN3         -9.5380     9.7170    50.5440 hn         1 P3F       0.399500
     43 H91        -11.2120    12.0640    50.6410 h1         1 P3F       0.083200
     44 H92        -12.5970    11.2230    51.3300 h1         1 P3F       0.083200
     45 HN4        -10.7770    10.2840    49.1570 hn         1 P3F       0.412500
     46 H12        -11.4660     6.7530    49.7310 ha         1 P3F       0.130000
     47 H13        -10.9680     5.2040    47.8880 ha         1 P3F       0.099000
     48 H14        -11.4020     5.8930    45.5440 ha         1 P3F       0.095000
     49 H15        -12.3380     8.1000    45.0700 ha         1 P3F       0.111000
@<TRIPOS>BOND
     1     1     2 1   
     2     2     3 1   
     3     2     4 1   
     4     2     5 1   
     5     5     6 1   
     6     6     7 1   
     7     6    34 1   
     8     6    35 1   
     9     7     8 ar  
    10     7    14 ar  
    11     8     9 ar  
    12     8    36 1   
    13     9    10 ar  
    14    10    11 1   
    15    10    12 ar  
    16    11    37 1   
    17    11    38 1   
    18    11    39 1   
    19    12    13 1   
    20    12    14 ar  
    21    13    40 1   
    22    14    15 1   
    23    15    16 2   
    24    15    41 1   
    25    16    17 1   
    26    17    18 1   
    27    17    42 1   
    28    18    19 2   
    29    18    20 1   
    30    20    21 1   
    31    20    43 1   
    32    20    44 1   
    33    21    22 1   
    34    21    45 1   
    35    22    23 2   
    36    22    24 1   
    37    24    25 ar  
    38    24    30 ar  
    39    25    26 1   
    40    25    33 ar  
    41    26    27 1   
    42    26    28 1   
    43    26    29 1   
    44    30    31 ar  
    45    30    46 1   
    46    31    32 ar  
    47    31    47 1   
    48    32    33 ar  
    49    32    48 1   
    50    33    49 1   
@<TRIPOS>SUBSTRUCTURE
     1 P3F         1 TEMP              0 ****  ****    0 ROOT
