@<TRIPOS>MOLECULE
P3T
   41    41     1     0     0
SMALL
abcg2


@<TRIPOS>ATOM
      1 OAE         64.1450    75.1530    13.5840 o          1 P3T      -0.918833
      2 PAU         65.4870    75.7840    13.9380 p5         1 P3T       1.261900
      3 OAF         66.4200    74.8690    14.7350 o          1 P3T      -0.918833
      4 OAC         65.4200    77.2230    14.4320 o          1 P3T      -0.918833
      5 OAP         66.2750    76.0000    12.4210 os         1 P3T      -0.564400
      6 CAM         66.5160    74.8500    11.6680 c3         1 P3T       0.275900
      7 CAS         67.3670    75.1640    10.4640 ca         1 P3T      -0.021300
      8 CAH         66.8000    75.0890     9.1980 ca         1 P3T       0.286900
      9 NAO         67.4560    75.3200     8.0690 nb         1 P3T      -0.678000
     10 CAQ         68.7420    75.6390     8.1260 ca         1 P3T       0.213300
     11 CAA         69.4690    75.8820     6.8350 c3         1 P3T      -0.128400
     12 CAR         69.4020    75.7430     9.3550 ca         1 P3T       0.069100
     13 OAD         70.7140    76.0550     9.4410 oh         1 P3T      -0.554100
     14 CAT         68.7170    75.5170    10.5480 ca         1 P3T      -0.053300
     15 CAG         69.4530    75.6630    11.8550 c3         1 P3T       0.212100
     16 NAN         69.7460    77.0600    12.1450 n7         1 P3T      -0.824400
     17 CAL         70.3080    77.2570    13.4730 c3         1 P3T       0.180800
     18 CAK         69.2340    77.2880    14.5500 c3         1 P3T      -0.101400
     19 CAJ         69.7940    77.4220    15.9580 c3         1 P3T      -0.087400
     20 CAI         68.6920    77.4280    17.0120 c3         1 P3T       0.113800
     21 NAB         69.1350    77.5150    18.3950 n8         1 P3T      -0.989200
     22 HAM1        67.0150    74.0720    12.2620 h1         1 P3T       0.008200
     23 HAM2        65.5820    74.3960    11.3060 h1         1 P3T       0.008200
     24 HAH         65.7520    74.8240     9.0960 h4         1 P3T       0.022100
     25 HAA1        68.7840    75.7630     5.9990 hc         1 P3T       0.026033
     26 HAA2        69.8860    76.8910     6.7800 hc         1 P3T       0.026033
     27 HAA3        70.2930    75.1790     6.6900 hc         1 P3T       0.026033
     28 HOAD        71.1010    76.2110     8.5720 ho         1 P3T       0.442000
     29 HAG1        68.8410    75.2630    12.6610 h1         1 P3T       0.051700
     30 HAG2        70.3620    75.0430    11.8330 h1         1 P3T       0.051700
     31 HNAN        70.4120    77.3950    11.4620 hn         1 P3T       0.382000
     32 HAL1        71.0590    76.4910    13.7250 h1         1 P3T      -0.010300
     33 HAL2        70.8380    78.2140    13.4720 h1         1 P3T      -0.010300
     34 HAK1        68.5510    78.1190    14.3430 hc         1 P3T       0.108700
     35 HAK2        68.6220    76.3840    14.5030 hc         1 P3T       0.108700
     36 HAJ1        70.4810    76.5930    16.1610 hc         1 P3T      -0.004800
     37 HAJ2        70.3880    78.3400    16.0450 hc         1 P3T      -0.004800
     38 HAI1        68.0130    78.2640    16.8170 h1         1 P3T       0.098700
     39 HAI2        68.0850    76.5240    16.8990 h1         1 P3T       0.098700
     40 HAB1        69.7650    76.7470    18.5920 hn         1 P3T       0.359000
     41 HAB2        69.6890    78.3550    18.5150 hn         1 P3T       0.359000
@<TRIPOS>BOND
     1     1     2 1   
     2     2     3 1   
     3     2     4 1   
     4     2     5 1   
     5     5     6 1   
     6     6     7 1   
     7     6    22 1   
     8     6    23 1   
     9     7     8 ar  
    10     7    14 ar  
    11     8     9 ar  
    12     8    24 1   
    13     9    10 ar  
    14    10    11 1   
    15    10    12 ar  
    16    11    25 1   
    17    11    26 1   
    18    11    27 1   
    19    12    13 1   
    20    12    14 ar  
    21    13    28 1   
    22    14    15 1   
    23    15    16 1   
    24    15    29 1   
    25    15    30 1   
    26    16    17 1   
    27    16    31 1   
    28    17    18 1   
    29    17    32 1   
    30    17    33 1   
    31    18    19 1   
    32    18    34 1   
    33    18    35 1   
    34    19    20 1   
    35    19    36 1   
    36    19    37 1   
    37    20    21 1   
    38    20    38 1   
    39    20    39 1   
    40    21    40 1   
    41    21    41 1   
@<TRIPOS>SUBSTRUCTURE
     1 P3T         1 TEMP              0 ****  ****    0 ROOT
