@<TRIPOS>MOLECULE
PH4
   27    26     1     0     0
SMALL
abcg2


@<TRIPOS>ATOM
      1 N3          -3.4460    -4.5550    -5.6770 n          1 PH4      -0.313300
      2 C4          -3.9900    -5.2880    -6.8000 c3         1 PH4       0.104000
      3 C5          -5.4080    -4.8870    -7.1870 c3         1 PH4      -0.124400
      4 C6          -5.9200    -5.7560    -8.3260 c3         1 PH4       0.258600
      5 O62         -7.6640    -7.3430   -10.2840 o          1 PH4      -0.939833
      6 P6          -8.3210    -6.6070    -9.1170 p5         1 PH4       1.289900
      7 O63         -9.5430    -5.7720    -9.4770 o          1 PH4      -0.939833
      8 O61         -8.4620    -7.4460    -7.8480 o          1 PH4      -0.939833
      9 O6          -7.2060    -5.3690    -8.7000 os         1 PH4      -0.588400
     10 O3          -4.0540    -4.8480    -4.4810 oh         1 PH4      -0.461100
     11 C2          -2.7360    -3.3970    -5.7260 c          1 PH4       0.582100
     12 O2          -2.4960    -2.7410    -4.7300 o          1 PH4      -0.624100
     13 C1          -2.2360    -3.0040    -7.1130 c3         1 PH4       0.182600
     14 O1          -1.4080    -1.9070    -7.0140 os         1 PH4      -0.568400
     15 P1          -0.8410    -1.2380    -8.5020 p5         1 PH4       1.279900
     16 O12         -2.1080    -0.7430    -9.1910 o          1 PH4      -0.928500
     17 O13         -0.1540    -2.4010    -9.2110 o          1 PH4      -0.928500
     18 O11          0.0880    -0.1540    -7.9770 o          1 PH4      -0.928500
     19 H4          -3.3210    -5.1580    -7.6500 h1         1 PH4       0.040200
     20 H4A         -3.9500    -6.3510    -6.5510 h1         1 PH4       0.040200
     21 H5          -6.0730    -4.9930    -6.3270 hc         1 PH4       0.046200
     22 H5A         -5.4210    -3.8330    -7.4820 hc         1 PH4       0.046200
     23 H6          -5.2190    -5.6810    -9.1730 h1         1 PH4      -0.017800
     24 H6A         -5.8810    -6.8030    -7.9950 h1         1 PH4      -0.017800
     25 HO3         -3.4800    -5.4920    -4.0460 ho         1 PH4       0.396000
     26 H1          -1.7260    -3.8690    -7.5650 h1         1 PH4       0.026700
     27 H1A         -3.1160    -2.8110    -7.7490 h1         1 PH4       0.026700
@<TRIPOS>BOND
     1     1     2 1   
     2     1    10 1   
     3     1    11 1   
     4     2     3 1   
     5     2    19 1   
     6     2    20 1   
     7     3     4 1   
     8     3    21 1   
     9     3    22 1   
    10     4     9 1   
    11     4    23 1   
    12     4    24 1   
    13     5     6 1   
    14     6     7 1   
    15     6     8 1   
    16     6     9 1   
    17    10    25 1   
    18    11    12 2   
    19    11    13 1   
    20    13    14 1   
    21    13    26 1   
    22    13    27 1   
    23    14    15 1   
    24    15    16 1   
    25    15    17 1   
    26    15    18 1   
@<TRIPOS>SUBSTRUCTURE
     1 PH4         1 TEMP              0 ****  ****    0 ROOT
