@<TRIPOS>MOLECULE
PKZ
  127   129     1     0     0
SMALL
abcg2


@<TRIPOS>ATOM
      1 C3         -10.1790    -1.7160    -1.4180 c3         1 PKZ      -0.067400
      2 C1          -7.8540    -2.6890    -1.0400 c          1 PKZ       0.616700
      3 C10        -18.3970     1.7560    -0.8340 c3         1 PKZ      -0.074400
      4 C8         -16.1090     0.6550    -0.8660 c3         1 PKZ      -0.074400
      5 C7         -14.8160     0.4060    -1.6320 c3         1 PKZ      -0.073400
      6 C5         -12.5020    -0.6750    -1.5720 c3         1 PKZ      -0.073400
      7 C11        -19.4240     2.5960    -1.5830 c3         1 PKZ      -0.074400
      8 C13        -21.7260     3.6870    -1.5130 c3         1 PKZ      -0.074400
      9 C16        -25.2780     5.0210    -0.5910 c3         1 PKZ      -0.088100
     10 C15        -24.0280     4.7770    -1.4250 c3         1 PKZ      -0.075400
     11 C14        -22.9850     3.9410    -0.6930 c3         1 PKZ      -0.076400
     12 N1A          9.7320    -0.5380    -3.5100 nb         1 PKZ      -0.354000
     13 C2A          9.4200     0.7120    -3.8310 ca         1 PKZ       0.123900
     14 N3A          9.1350     1.7150    -3.0180 nb         1 PKZ      -0.199000
     15 C4A          9.1870     1.3570    -1.7300 ca         1 PKZ       0.094500
     16 C5A          9.5030     0.0950    -1.2530 ca         1 PKZ      -0.068600
     17 C6A          9.7820    -0.8870    -2.2180 ca         1 PKZ       0.414900
     18 N6A         10.0870    -2.1460    -1.8970 nv         1 PKZ      -1.096900
     19 N7A          9.4760     0.0760     0.1160 nc         1 PKZ      -0.612100
     20 C8A          9.1450     1.2900     0.4500 cd         1 PKZ       0.510700
     21 N9A          8.9530     2.1160    -0.6240 na         1 PKZ      -0.257300
     22 C1B          8.7120     3.5580    -0.5990 c5         1 PKZ       0.274300
     23 C2B          7.6790     4.0210    -1.6420 c5         1 PKZ       0.116300
     24 O2B          8.2070     4.3360    -2.8890 oh         1 PKZ      -0.691000
     25 C3B          7.0770     5.2330    -0.9310 c5         1 PKZ       0.241300
     26 O3B          7.9310     6.3180    -1.0720 os         1 PKZ      -0.564400
     27 P3B          7.2650     7.8840    -0.8660 p5         1 PKZ       1.280900
     28 O7A          6.7260     7.9030     0.5610 o          1 PKZ      -0.931167
     29 O8A          8.5000     8.7390    -1.1030 o          1 PKZ      -0.931167
     30 O9A          6.1840     7.9850    -1.9360 o          1 PKZ      -0.931167
     31 C4B          7.0330     4.7220     0.5090 c5         1 PKZ       0.084300
     32 O4B          8.2070     3.9050     0.6490 os         1 PKZ      -0.443000
     33 C5B          5.7730     3.9340     0.8200 c3         1 PKZ       0.210600
     34 O5B          5.7700     3.4520     2.1450 os         1 PKZ      -0.592400
     35 P1A          6.2780     1.9270     2.5080 p5         1 PKZ       1.477800
     36 O1A          7.5030     2.0300     3.3630 o          1 PKZ      -0.864500
     37 O2A          6.2360     1.0720     1.2830 o          1 PKZ      -0.864500
     38 O3A          4.9870     1.6000     3.4870 os         1 PKZ      -0.690800
     39 P2A          4.6620     0.1680     4.2080 p5         1 PKZ       1.459800
     40 O4A          3.7490     0.4760     5.3570 o          1 PKZ      -0.864000
     41 O5A          5.9050    -0.6320     4.4320 o          1 PKZ      -0.864000
     42 O6A          3.7850    -0.4830     2.9830 os         1 PKZ      -0.582400
     43 CBP          3.8700    -2.5130     1.6730 c3         1 PKZ      -0.073000
     44 CCP          3.4860    -1.8630     3.0070 c3         1 PKZ       0.248600
     45 CDP          3.1070    -1.8460     0.5270 c3         1 PKZ      -0.082100
     46 CEP          5.3710    -2.3470     1.4200 c3         1 PKZ      -0.082100
     47 CAP          3.5600    -4.0350     1.7060 c3         1 PKZ       0.107300
     48 OAP          4.3710    -4.7340     2.6130 oh         1 PKZ      -0.656000
     49 C9P          2.1020    -4.3560     2.0380 c          1 PKZ       0.569100
     50 O9P          1.7730    -4.5750     3.2000 o          1 PKZ      -0.628100
     51 N8P          1.2380    -4.3880     1.0200 ns         1 PKZ      -0.507900
     52 C7P         -0.1710    -4.6670     1.2090 c3         1 PKZ       0.116000
     53 C6P         -0.9640    -4.2660    -0.0250 c3         1 PKZ      -0.175400
     54 C5P         -2.4470    -4.4680     0.2050 c          1 PKZ       0.599100
     55 O5P         -2.9760    -4.1950     1.2740 o          1 PKZ      -0.589100
     56 N4P         -3.1370    -4.9560    -0.8390 ns         1 PKZ      -0.519900
     57 C3P         -4.5590    -5.1910    -0.7830 c3         1 PKZ       0.117000
     58 C2P         -5.3570    -3.9220    -1.0780 c3         1 PKZ       0.055600
     59 S1P         -7.1080    -4.2660    -0.7450 ss         1 PKZ      -0.415600
     60 O1          -7.2490    -1.7580    -1.5050 o          1 PKZ      -0.495100
     61 C2          -9.2920    -2.6410    -0.5950 c3         1 PKZ      -0.168400
     62 C4         -11.5490    -1.5510    -0.7710 c3         1 PKZ      -0.076400
     63 C6         -13.8260    -0.4500    -0.8520 c3         1 PKZ      -0.075400
     64 C9         -17.1220     1.5000    -1.6280 c3         1 PKZ      -0.073400
     65 C12        -20.6890     2.8520    -0.7730 c3         1 PKZ      -0.074400
     66 H1          -9.7050    -0.7370    -1.5190 hc         1 PKZ       0.053200
     67 H2         -10.2890    -2.1160    -2.4300 hc         1 PKZ       0.053200
     68 H3         -18.1420     2.2550     0.1080 hc         1 PKZ       0.036700
     69 H4         -18.8480     0.7980    -0.5540 hc         1 PKZ       0.036700
     70 H5         -16.5660    -0.3060    -0.6040 hc         1 PKZ       0.036200
     71 H6         -15.8740     1.1450     0.0860 hc         1 PKZ       0.036200
     72 H7         -15.0440    -0.0780    -2.5880 hc         1 PKZ       0.038200
     73 H8         -14.3510     1.3660    -1.8820 hc         1 PKZ       0.038200
     74 H9         -12.0300     0.2930    -1.7740 hc         1 PKZ       0.040700
     75 H10        -12.6880    -1.1330    -2.5500 hc         1 PKZ       0.040700
     76 H11        -18.9740     3.5540    -1.8680 hc         1 PKZ       0.037200
     77 H12        -19.6880     2.0950    -2.5220 hc         1 PKZ       0.037200
     78 H13        -21.9960     3.1860    -2.4490 hc         1 PKZ       0.037200
     79 H14        -21.2810     4.6460    -1.8020 hc         1 PKZ       0.037200
     80 H15        -26.0130     5.6190    -1.1310 hc         1 PKZ       0.029367
     81 H16        -25.7560     4.0790    -0.3130 hc         1 PKZ       0.029367
     82 H17        -25.0360     5.5500     0.3330 hc         1 PKZ       0.029367
     83 H18        -24.3000     4.2760    -2.3590 hc         1 PKZ       0.036200
     84 H19        -23.5850     5.7350    -1.7130 hc         1 PKZ       0.036200
     85 H20        -23.4280     2.9820    -0.4020 hc         1 PKZ       0.036200
     86 H21        -22.7130     4.4420     0.2430 hc         1 PKZ       0.036200
     87 H23         10.1780    -2.4260    -0.9360 hn         1 PKZ       0.483000
     88 H24         10.3350    -2.8070    -2.6130 hn         1 PKZ       0.483000
     89 H26          9.6750     4.0530    -0.7800 h2         1 PKZ       0.075700
     90 H27          6.9010     3.2450    -1.7170 h1         1 PKZ       0.024700
     91 H28          8.5500     3.4970    -3.2520 ho         1 PKZ       0.491000
     92 H29          6.0690     5.4500    -1.3110 h1         1 PKZ       0.052700
     93 H32          7.1190     5.5560     1.2060 h1         1 PKZ       0.145700
     94 H33          4.9240     4.6160     0.7130 h1         1 PKZ       0.022200
     95 H34          5.6350     3.1200     0.1020 h1         1 PKZ       0.022200
     96 H37          4.0120    -2.3730     3.8210 h1         1 PKZ       0.006200
     97 H38          2.4130    -1.9790     3.1910 h1         1 PKZ       0.006200
     98 H39          3.4180    -0.8070     0.4280 hc         1 PKZ       0.045033
     99 H40          3.3200    -2.3410    -0.4250 hc         1 PKZ       0.045033
    100 H41          2.0260    -1.8550     0.6750 hc         1 PKZ       0.045033
    101 H42          5.6340    -1.2960     1.3140 hc         1 PKZ       0.045033
    102 H43          5.9650    -2.7530     2.2380 hc         1 PKZ       0.045033
    103 H44          5.6620    -2.8650     0.5020 hc         1 PKZ       0.045033
    104 H45          3.7900    -4.4240     0.7060 h1         1 PKZ       0.043700
    105 H46          3.9070    -4.7540     3.4600 ho         1 PKZ       0.463000
    106 H47          1.5920    -4.3090     0.0800 hn         1 PKZ       0.314500
    107 H48         -0.3230    -5.7290     1.4220 h1         1 PKZ       0.057700
    108 H49         -0.5280    -4.1100     2.0740 h1         1 PKZ       0.057700
    109 H50         -0.8020    -3.2060    -0.2410 hc         1 PKZ       0.067200
    110 H51         -0.6230    -4.8240    -0.9000 hc         1 PKZ       0.067200
    111 H52         -2.6540    -5.1580    -1.6990 hn         1 PKZ       0.314500
    112 H53         -4.8020    -5.9670    -1.5080 h1         1 PKZ       0.056700
    113 H54         -4.8140    -5.5770     0.2050 h1         1 PKZ       0.056700
    114 H55         -5.0360    -3.1080    -0.4290 h1         1 PKZ       0.086700
    115 H56         -5.2300    -3.6170    -2.1160 h1         1 PKZ       0.086700
    116 H57         -9.2660    -2.3000     0.4470 hc         1 PKZ       0.070200
    117 H58         -9.7100    -3.6510    -0.5640 hc         1 PKZ       0.070200
    118 H59        -12.0050    -2.5350    -0.6180 hc         1 PKZ       0.037200
    119 H60        -11.4170    -1.1220     0.2280 hc         1 PKZ       0.037200
    120 H61        -13.6290     0.0210     0.1180 hc         1 PKZ       0.036200
    121 H62        -14.2870    -1.4180    -0.6270 hc         1 PKZ       0.036200
    122 H63        -17.3730     1.0050    -2.5720 hc         1 PKZ       0.037200
    123 H64        -16.6650     2.4580    -1.9020 hc         1 PKZ       0.037200
    124 H65        -21.1350     1.8930    -0.4850 hc         1 PKZ       0.036700
    125 H66        -20.4230     3.3530     0.1650 hc         1 PKZ       0.036700
    126 H22          9.3960     0.9360    -4.8910 h5         1 PKZ       0.009100
    127 H25          9.0100     1.6380     1.4620 h5         1 PKZ       0.135800
@<TRIPOS>BOND
     1     1    61 1   
     2     1    62 1   
     3     1    66 1   
     4     1    67 1   
     5     2    59 1   
     6     2    60 2   
     7     2    61 1   
     8     3     7 1   
     9     3    64 1   
    10     3    68 1   
    11     3    69 1   
    12     4     5 1   
    13     4    64 1   
    14     4    70 1   
    15     4    71 1   
    16     5    63 1   
    17     5    72 1   
    18     5    73 1   
    19     6    62 1   
    20     6    63 1   
    21     6    74 1   
    22     6    75 1   
    23     7    65 1   
    24     7    76 1   
    25     7    77 1   
    26     8    11 1   
    27     8    65 1   
    28     8    78 1   
    29     8    79 1   
    30     9    10 1   
    31     9    80 1   
    32     9    81 1   
    33     9    82 1   
    34    10    11 1   
    35    10    83 1   
    36    10    84 1   
    37    11    85 1   
    38    11    86 1   
    39    12    13 ar  
    40    12    17 ar  
    41    13    14 ar  
    42    13   126 1   
    43    14    15 ar  
    44    15    16 ar  
    45    15    21 1   
    46    16    17 ar  
    47    16    19 1   
    48    17    18 1   
    49    18    87 1   
    50    18    88 1   
    51    19    20 2   
    52    20    21 1   
    53    20   127 1   
    54    21    22 1   
    55    22    23 1   
    56    22    32 1   
    57    22    89 1   
    58    23    24 1   
    59    23    25 1   
    60    23    90 1   
    61    24    91 1   
    62    25    26 1   
    63    25    31 1   
    64    25    92 1   
    65    26    27 1   
    66    27    28 1   
    67    27    29 1   
    68    27    30 1   
    69    31    32 1   
    70    31    33 1   
    71    31    93 1   
    72    33    34 1   
    73    33    94 1   
    74    33    95 1   
    75    34    35 1   
    76    35    36 1   
    77    35    37 1   
    78    35    38 1   
    79    38    39 1   
    80    39    40 1   
    81    39    41 1   
    82    39    42 1   
    83    42    44 1   
    84    43    44 1   
    85    43    45 1   
    86    43    46 1   
    87    43    47 1   
    88    44    96 1   
    89    44    97 1   
    90    45    98 1   
    91    45    99 1   
    92    45   100 1   
    93    46   101 1   
    94    46   102 1   
    95    46   103 1   
    96    47    48 1   
    97    47    49 1   
    98    47   104 1   
    99    48   105 1   
   100    49    50 2   
   101    49    51 1   
   102    51    52 1   
   103    51   106 1   
   104    52    53 1   
   105    52   107 1   
   106    52   108 1   
   107    53    54 1   
   108    53   109 1   
   109    53   110 1   
   110    54    55 2   
   111    54    56 1   
   112    56    57 1   
   113    56   111 1   
   114    57    58 1   
   115    57   112 1   
   116    57   113 1   
   117    58    59 1   
   118    58   114 1   
   119    58   115 1   
   120    61   116 1   
   121    61   117 1   
   122    62   118 1   
   123    62   119 1   
   124    63   120 1   
   125    63   121 1   
   126    64   122 1   
   127    64   123 1   
   128    65   124 1   
   129    65   125 1   
@<TRIPOS>SUBSTRUCTURE
     1 PKZ         1 TEMP              0 ****  ****    0 ROOT
