@<TRIPOS>MOLECULE
PL4
   48    48     1     0     0
SMALL
abcg2


@<TRIPOS>ATOM
      1 CB         -38.8460    54.5140    -0.8470 c3         1 PL4      -0.045400
      2 CBA        -38.4200    58.1140    -2.2550 c3         1 PL4       0.059500
      3 N          -36.9180    53.2550     0.0020 n8         1 PL4      -1.006200
      4 OAI        -34.4170    55.7270    -1.5660 o          1 PL4      -0.925833
      5 PBB        -33.6110    55.7390    -0.2650 p5         1 PL4       1.271900
      6 OAJ        -32.1020    55.7870    -0.4540 o          1 PL4      -0.925833
      7 OAE        -34.1050    54.7420     0.7880 o          1 PL4      -0.925833
      8 OAS        -33.9030    57.2880     0.4180 os         1 PL4      -0.605400
      9 CAW        -35.3860    58.9740     1.1760 ca         1 PL4       0.010700
     10 CAK        -35.0480    59.6910     2.3150 ca         1 PL4       0.278900
     11 NAQ        -35.2460    60.9950     2.4610 nb         1 PL4      -0.710000
     12 CAV        -35.8020    61.6750     1.4680 ca         1 PL4       0.184300
     13 CAX        -36.1790    61.0390     0.2780 ca         1 PL4       0.070100
     14 OAH        -36.7640    61.7130    -0.7360 oh         1 PL4      -0.527100
     15 CAY        -35.9670    59.6710     0.1140 ca         1 PL4      -0.031300
     16 NAR        -37.8520    58.6760    -1.0410 n7         1 PL4      -0.836400
     17 CAU        -39.8680    58.6170    -2.4910 c          1 PL4       0.715000
     18 OAG        -40.3040    59.4960    -1.7200 o          1 PL4      -0.771500
     19 OAD        -40.4670    58.1100    -3.4600 o          1 PL4      -0.771500
     20 CAN        -38.3500    56.5860    -2.2340 c3         1 PL4      -0.046400
     21 CAL        -39.2860    55.9290    -1.2200 c3         1 PL4      -0.069400
     22 CA         -37.6700    54.4980     0.1410 c3         1 PL4       0.032500
     23 C          -38.1890    54.6990     1.5860 c          1 PL4       0.731000
     24 O          -38.2930    55.8850     1.9740 o          1 PL4      -0.771000
     25 OXT        -38.4920    53.6820     2.2400 o          1 PL4      -0.771000
     26 HB         -39.6820    53.9410    -0.4340 hc         1 PL4      -0.010300
     27 HBA        -38.5490    53.9870    -1.7620 hc         1 PL4      -0.010300
     28 HAA        -35.6600    63.4530     2.6350 hc         1 PL4       0.009700
     29 HAAA       -35.5100    63.7460     0.9060 hc         1 PL4       0.009700
     30 HAAB       -37.0890    63.4090     1.6100 hc         1 PL4       0.009700
     31 HBAA       -37.8460    58.4560    -3.1360 h1         1 PL4      -0.014300
     32 HN         -36.6530    53.1670    -0.9740 hn         1 PL4       0.387000
     33 HNA        -36.0320    53.3830     0.4820 hn         1 PL4       0.387000
     34 HAP        -35.9530    56.9910     0.6530 h1         1 PL4       0.046700
     35 HAPA       -35.0390    57.1150     2.1410 h1         1 PL4       0.046700
     36 HAK        -34.5970    59.1770     3.1580 h4         1 PL4       0.007100
     37 HOAH       -36.8630    62.6480    -0.5240 ho         1 PL4       0.421000
     38 HAO        -36.2080    59.6250    -2.0140 h1         1 PL4       0.053200
     39 HAOA       -35.8740    58.0670    -1.2980 h1         1 PL4       0.053200
     40 HNAR       -38.3820    59.5120    -0.8220 hn         1 PL4       0.416000
     41 HAN        -38.5710    56.2020    -3.2330 hc         1 PL4       0.037200
     42 HANA       -37.3160    56.2930    -2.0280 hc         1 PL4       0.037200
     43 HAL        -40.2980    55.9090    -1.6330 hc         1 PL4       0.040700
     44 HALA       -39.3320    56.5360    -0.3140 hc         1 PL4       0.040700
     45 HA         -37.0370    55.3640    -0.0950 h1         1 PL4       0.066700
     46 CAO        -36.4360    58.9890    -1.1450 c3         1 PL4       0.204100
     47 CAP        -35.0980    57.4980     1.1120 c3         1 PL4       0.262900
     48 CAA        -36.0290    63.1460     1.6590 c3         1 PL4      -0.114400
@<TRIPOS>BOND
     1     1    21 1   
     2     1    22 1   
     3     1    26 1   
     4     1    27 1   
     5     2    16 1   
     6     2    17 1   
     7     2    20 1   
     8     2    31 1   
     9     3    22 1   
    10     3    32 1   
    11     3    33 1   
    12     4     5 1   
    13     5     6 1   
    14     5     7 1   
    15     5     8 1   
    16     8    47 1   
    17     9    10 ar  
    18     9    15 ar  
    19     9    47 1   
    20    10    11 ar  
    21    10    36 1   
    22    11    12 ar  
    23    12    13 ar  
    24    12    48 1   
    25    13    14 1   
    26    13    15 ar  
    27    14    37 1   
    28    15    46 1   
    29    16    40 1   
    30    16    46 1   
    31    17    18 1   
    32    17    19 1   
    33    20    21 1   
    34    20    41 1   
    35    20    42 1   
    36    21    43 1   
    37    21    44 1   
    38    22    23 1   
    39    22    45 1   
    40    23    24 1   
    41    23    25 1   
    42    28    48 1   
    43    29    48 1   
    44    30    48 1   
    45    34    47 1   
    46    35    47 1   
    47    38    46 1   
    48    39    46 1   
@<TRIPOS>SUBSTRUCTURE
     1 PL4         1 TEMP              0 ****  ****    0 ROOT
