@<TRIPOS>MOLECULE
PLV
   39    39     1     0     0
SMALL
abcg2


@<TRIPOS>ATOM
      1 N            2.0230    -0.2440     0.2570 n7         1 PLV      -0.859400
      2 CA           2.9960     0.6860     0.7990 c3         1 PLV       0.022500
      3 CB           4.2310     0.7310    -0.0840 c3         1 PLV       0.186600
      4 OG           3.8960     1.3200    -1.3190 os         1 PLV      -0.404000
      5 C            2.4790     2.1300     1.0420 c          1 PLV       0.690000
      6 OXT          3.2450     2.8740     1.6890 o          1 PLV      -0.715000
      7 O            1.3690     2.4340     0.5680 o          1 PLV      -0.715000
      8 N1          -1.6440    -3.4540    -0.5900 nb         1 PLV      -0.695000
      9 C2          -0.4300    -3.8410    -0.2270 ca         1 PLV       0.182300
     10 C2A         -0.0320    -5.2650    -0.4860 c3         1 PLV      -0.117400
     11 C3           0.4590    -2.9470     0.3810 ca         1 PLV       0.083100
     12 O3           1.7000    -3.3210     0.7530 oh         1 PLV      -0.529100
     13 C4           0.0690    -1.6320     0.6260 ca         1 PLV      -0.102300
     14 C4A          1.0420    -0.6650     1.2450 c3         1 PLV       0.218100
     15 C5          -1.2160    -1.2450     0.2360 ca         1 PLV      -0.028300
     16 C6          -2.0240    -2.2010    -0.3670 ca         1 PLV       0.312900
     17 C5A         -1.7240     0.1570     0.4800 c3         1 PLV       0.264900
     18 O4P         -3.0050     0.3050    -0.0380 os         1 PLV      -0.597400
     19 P           -3.5500     1.8850    -0.4010 p5         1 PLV       1.276900
     20 O1P         -2.6480     2.3570    -1.5350 o          1 PLV      -0.926167
     21 O2P         -4.9890     1.5890    -0.8010 o          1 PLV      -0.926167
     22 O3P         -3.3870     2.6630     0.9000 o          1 PLV      -0.926167
     23 C7           4.9800     1.3660    -2.2060 c3         1 PLV       0.160900
     24 HN           1.5240     0.2320    -0.4860 hn         1 PLV       0.442000
     25 HA           3.3360     0.2870     1.7620 h1         1 PLV       0.024700
     26 HB1          4.6090    -0.2910    -0.2340 h1         1 PLV      -0.005800
     27 HB2          5.0250     1.3030     0.4150 h1         1 PLV      -0.005800
     28 H2A1         0.2200    -5.8000     0.4340 hc         1 PLV       0.014367
     29 H2A2        -0.8550    -5.7990    -0.9560 hc         1 PLV       0.014367
     30 H2A3         0.8330    -5.3370    -1.1510 hc         1 PLV       0.014367
     31 HO3          1.8350    -4.2620     0.5970 ho         1 PLV       0.422000
     32 H4A1         1.5710    -1.1570     2.0650 h1         1 PLV       0.039700
     33 H4A2         0.5000     0.1770     1.6890 h1         1 PLV       0.039700
     34 H6          -3.0220    -1.9410    -0.6920 h4         1 PLV       0.062100
     35 H5A1        -1.7070     0.3480     1.5640 h1         1 PLV       0.047200
     36 H5A2        -1.0140     0.8750     0.0470 h1         1 PLV       0.047200
     37 H71          5.8230     1.9410    -1.8020 h1         1 PLV      -0.004967
     38 H72          5.3530     0.3650    -2.4580 h1         1 PLV      -0.004967
     39 H73          4.6480     1.8490    -3.1250 h1         1 PLV      -0.004967
@<TRIPOS>BOND
     1     1     2 1   
     2     1    14 1   
     3     1    24 1   
     4     2     3 1   
     5     2     5 1   
     6     2    25 1   
     7     3     4 1   
     8     3    26 1   
     9     3    27 1   
    10     4    23 1   
    11     5     6 1   
    12     5     7 1   
    13     8     9 ar  
    14     8    16 ar  
    15     9    10 1   
    16     9    11 ar  
    17    10    28 1   
    18    10    29 1   
    19    10    30 1   
    20    11    12 1   
    21    11    13 ar  
    22    12    31 1   
    23    13    14 1   
    24    13    15 ar  
    25    14    32 1   
    26    14    33 1   
    27    15    16 ar  
    28    15    17 1   
    29    16    34 1   
    30    17    18 1   
    31    17    35 1   
    32    17    36 1   
    33    18    19 1   
    34    19    20 1   
    35    19    21 1   
    36    19    22 1   
    37    23    37 1   
    38    23    38 1   
    39    23    39 1   
@<TRIPOS>SUBSTRUCTURE
     1 PLV         1 TEMP              0 ****  ****    0 ROOT
