@<TRIPOS>MOLECULE
PMM
   24    25     1     0     0
SMALL
abcg2


@<TRIPOS>ATOM
      1 N5          33.6060     5.3890    38.8930 nb         1 PMM      -0.593000
      2 C6          32.3910     5.4440    39.4080 ca         1 PMM       0.341300
      3 C7          32.0720     4.6640    40.5410 ca         1 PMM       0.095900
      4 N8          32.9350     3.8700    41.1390 nb         1 PMM      -0.144000
      5 N1          35.0780     3.0010    41.2490 nc         1 PMM      -0.755700
      6 C2          36.2890     2.9420    40.7520 cd         1 PMM       0.698800
      7 N2          37.2140     2.1510    41.3140 nv         1 PMM      -1.081200
      8 N3          36.6760     3.6500    39.6410 ns         1 PMM      -0.463400
      9 C4          35.8520     4.5070    38.9310 c          1 PMM       0.487500
     10 O4          36.2680     5.1050    37.9500 o          1 PMM      -0.524000
     11 C4A         34.4980     4.5860    39.4860 ca         1 PMM       0.171500
     12 C8A         34.1850     3.8120    40.6230 ca         1 PMM       0.257000
     13 C9          31.3540     6.3210    38.7700 c3         1 PMM       0.171300
     14 O10         30.3760     5.4980    38.1590 os         1 PMM      -0.577400
     15 PA          28.9530     6.2230    37.6060 p5         1 PMM       1.269900
     16 O1P         28.2010     5.0200    37.0610 o          1 PMM      -0.922167
     17 O2P         29.3940     7.2330    36.5530 o          1 PMM      -0.922167
     18 O3P         28.3180     6.8640    38.8330 o          1 PMM      -0.922167
     19 H7          31.0720     4.7110    40.9570 h4         1 PMM       0.059100
     20 HN21        38.1760     2.1730    41.0260 hn         1 PMM       0.492500
     21 HN22        36.9830     1.6810    42.1720 hn         1 PMM       0.492500
     22 HN3         37.6220     3.5540    39.2960 hn         1 PMM       0.300500
     23 H91         30.8890     6.9550    39.5320 h1         1 PMM       0.034200
     24 H92         31.8410     6.9680    38.0370 h1         1 PMM       0.034200
@<TRIPOS>BOND
     1     1     2 ar  
     2     1    11 ar  
     3     2     3 ar  
     4     2    13 1   
     5     3     4 ar  
     6     3    19 1   
     7     4    12 ar  
     8     5     6 2   
     9     5    12 1   
    10     6     7 1   
    11     6     8 1   
    12     7    20 1   
    13     7    21 1   
    14     8     9 1   
    15     8    22 1   
    16     9    10 2   
    17     9    11 1   
    18    11    12 ar  
    19    13    14 1   
    20    13    23 1   
    21    13    24 1   
    22    14    15 1   
    23    15    16 1   
    24    15    17 1   
    25    15    18 1   
@<TRIPOS>SUBSTRUCTURE
     1 PMM         1 TEMP              0 ****  ****    0 ROOT
