@<TRIPOS>MOLECULE
PMP
   27    27     1     0     0
SMALL
abcg2


@<TRIPOS>ATOM
      1 N1          22.3080    10.7700    29.0310 nb         1 PMP      -0.686000
      2 C2          23.4660    11.3740    29.3090 ca         1 PMP       0.254300
      3 C2A         24.1660    12.0840    28.1850 c3         1 PMP      -0.111400
      4 C3          24.0060    11.3420    30.6040 ca         1 PMP       0.100100
      5 O3          25.1880    11.9700    30.8410 oh         1 PMP      -0.612100
      6 C4          23.3350    10.6580    31.6270 ca         1 PMP      -0.121300
      7 C4A         23.9480    10.5620    33.0040 c3         1 PMP       0.172100
      8 N4A         24.6090    11.8270    33.3900 n8         1 PMP      -1.051200
      9 C5          22.1210    10.0410    31.3130 ca         1 PMP      -0.038300
     10 C6          21.6610    10.1290    30.0050 ca         1 PMP       0.275900
     11 C5A         21.3310     9.2760    32.3380 c3         1 PMP       0.258900
     12 O4P         22.0670     8.1370    32.7630 os         1 PMP      -0.583400
     13 P           21.7410     7.5020    34.2850 p5         1 PMP       1.269900
     14 O1P         22.8150     6.4320    34.4100 o          1 PMP      -0.926500
     15 O2P         20.3170     6.9610    34.2080 o          1 PMP      -0.926500
     16 O3P         21.8930     8.6680    35.2560 o          1 PMP      -0.926500
     17 H2A1        25.1620    12.4060    28.4700 hc         1 PMP       0.026033
     18 H2A2        24.2410    11.4260    27.3190 hc         1 PMP       0.026033
     19 H2A3        23.5960    12.9630    27.8780 hc         1 PMP       0.026033
     20 HO3         25.2470    12.0710    31.8360 ho         1 PMP       0.510000
     21 H4A1        23.2100    10.2340    33.7330 h1         1 PMP       0.106700
     22 H4A2        24.7210     9.7900    32.9800 h1         1 PMP       0.106700
     23 HNA1        25.1910    11.6820    34.2050 hn         1 PMP       0.400000
     24 HNA2        23.9190    12.5260    33.6360 hn         1 PMP       0.400000
     25 H6          20.7250     9.6550    29.7350 h4         1 PMP       0.010100
     26 H5A1        21.1150     9.9160    33.1970 h1         1 PMP       0.019200
     27 H5A2        20.3750     8.9690    31.9040 h1         1 PMP       0.019200
@<TRIPOS>BOND
     1     1     2 ar  
     2     1    10 ar  
     3     2     3 1   
     4     2     4 ar  
     5     3    17 1   
     6     3    18 1   
     7     3    19 1   
     8     4     5 1   
     9     4     6 ar  
    10     5    20 1   
    11     6     7 1   
    12     6     9 ar  
    13     7     8 1   
    14     7    21 1   
    15     7    22 1   
    16     8    23 1   
    17     8    24 1   
    18     9    10 ar  
    19     9    11 1   
    20    10    25 1   
    21    11    12 1   
    22    11    26 1   
    23    11    27 1   
    24    12    13 1   
    25    13    14 1   
    26    13    15 1   
    27    13    16 1   
@<TRIPOS>SUBSTRUCTURE
     1 PMP         1 TEMP              0 ****  ****    0 ROOT
