@<TRIPOS>MOLECULE
POH
   90    98     1     0     0
SMALL
abcg2


@<TRIPOS>ATOM
      1 CX3          6.5160     4.3710     0.1970 ca         1 POH      -0.001425
      2 C2A          6.9760     6.0270    -5.6400 cc         1 POH      -0.116250
      3 C71          5.6810     5.7070    -1.6040 ca         1 POH       0.059450
      4 C81          6.5010     6.7380    -1.1630 ca         1 POH      -0.116500
      5 C91          7.2970     6.5500    -0.0560 ca         1 POH      -0.052125
      6 C3A          6.8090     5.9170    -4.2940 cc         1 POH      -0.116250
      7 C4A          5.4070     5.9350    -4.0250 cd         1 POH      -0.049050
      8 C1A          5.6810     6.0880    -6.2380 cd         1 POH      -0.049050
      9 CXD          5.7040     4.5040    -0.9010 ca         1 POH      -0.116500
     10 NXT          7.2930     5.3860     0.6030 na         1 POH       0.076050
     11 NA           4.7760     6.0340    -5.2250 na         1 POH      -0.071500
     12 NB           2.4530     6.0080    -3.4740 nc         1 POH      -0.645800
     13 NC           0.6280     6.0930    -5.7560 na         1 POH      -0.071500
     14 ND           2.9500     6.1290    -7.5080 nc         1 POH      -0.645800
     15 CHB          4.7910     5.8650    -2.7790 cf         1 POH      -0.006150
     16 C1B          3.4140     5.9180    -2.5330 cc         1 POH       0.148600
     17 CX4         -2.9930     5.1300    -1.3470 cc         1 POH       0.036875
     18 C2B          2.8400     5.9230    -1.1980 cc         1 POH      -0.205000
     19 C72         -1.1450     6.1630    -2.4570 cc         1 POH       0.071250
     20 C82         -1.4420     7.3340    -1.7700 cc         1 POH      -0.184500
     21 C92         -2.4980     7.3590    -0.8890 cd         1 POH       0.036875
     22 C3B          1.5080     6.0130    -1.3660 cd         1 POH      -0.291600
     23 C4B          1.2860     6.0610    -2.8010 cd         1 POH       0.468900
     24 CXE         -1.9510     5.0490    -2.2380 cd         1 POH      -0.184500
     25 NXU         -3.2480     6.2700    -0.6890 na         1 POH      -0.335450
     26 CHC          0.0140     6.1070    -3.3810 cf         1 POH      -0.104550
     27 C1C         -0.2760     6.0960    -4.7410 cd         1 POH      -0.049050
     28 CX5         -1.1770     4.8340   -11.2670 ca         1 POH      -0.001425
     29 C2C         -1.5720     6.0870    -5.3400 cc         1 POH      -0.116250
     30 C73         -0.2880     6.0160    -9.3850 ca         1 POH       0.059450
     31 C83         -1.0970     7.0920    -9.7360 ca         1 POH      -0.116500
     32 C93         -1.9150     7.0000   -10.8370 ca         1 POH      -0.052125
     33 C3C         -1.4060     6.0600    -6.6900 cc         1 POH      -0.116250
     34 C4C         -0.0040     6.0780    -6.9590 cd         1 POH      -0.049050
     35 CXF         -0.3410     4.8720   -10.1770 ca         1 POH      -0.116500
     36 NXV         -1.9440     5.8870   -11.5810 na         1 POH       0.076050
     37 CHD          0.6110     6.0740    -8.2090 cf         1 POH      -0.006150
     38 C1D          1.9890     6.1140    -8.4520 cc         1 POH       0.148600
     39 CX6          8.4040     5.3000    -9.6610 cd         1 POH       0.036875
     40 C2D          2.5640     6.1870    -9.7850 cc         1 POH      -0.205000
     41 C74          6.5530     6.2850    -8.5130 cc         1 POH       0.071250
     42 C84          6.8550     7.4860    -9.1440 cc         1 POH      -0.184500
     43 C94          7.9170     7.5500   -10.0160 cd         1 POH       0.036875
     44 C3D          3.8980     6.2410    -9.6120 cd         1 POH      -0.291600
     45 C4D          4.1190     6.2010    -8.1760 cd         1 POH       0.468900
     46 CXG          7.3550     5.1800    -8.7820 cc         1 POH      -0.184500
     47 CHA          5.3910     6.1900    -7.5950 cf         1 POH      -0.104550
     48 NXW          8.6660     6.4690   -10.2640 na         1 POH      -0.335450
     49 H51          6.5660     3.4580     0.7720 h4         1 POH       0.199000
     50 H11          7.9150     6.0600    -6.1680 ha         1 POH       0.154750
     51 H31          6.5190     7.6950    -1.6630 ha         1 POH       0.181250
     52 H41          7.9410     7.3290     0.3250 h4         1 POH       0.199000
     53 H811         8.7720     6.0600     1.9290 h1         1 POH       0.108617
     54 H821         7.4780     5.0940     2.6670 h1         1 POH       0.108617
     55 H831         8.7290     4.3060     1.6770 h1         1 POH       0.108617
     56 H21          7.5910     5.8310    -3.5580 ha         1 POH       0.154750
     57 H61          5.0930     3.6660    -1.2050 ha         1 POH       0.181250
     58 H71          3.7720     6.0550    -5.3460 hn         1 POH       0.407500
     59 H73          1.6330     6.1000    -5.6340 hn         1 POH       0.407500
     60 H52         -3.6400     4.2910    -1.1340 h4         1 POH       0.267000
     61 H12          3.3750     5.8770    -0.2630 ha         1 POH       0.213000
     62 H32         -0.8560     8.2310    -1.9090 ha         1 POH       0.249250
     63 H42         -2.7610     8.2450    -0.3310 h4         1 POH       0.267000
     64 H812        -4.4590     7.3020     0.6730 h1         1 POH       0.108617
     65 H822        -5.2750     6.0130    -0.2340 h1         1 POH       0.108617
     66 H832        -4.1460     5.6020     1.0790 h1         1 POH       0.108617
     67 H22          0.7550     6.0340    -0.5940 ha         1 POH       0.213000
     68 H62         -1.7650     4.1120    -2.7430 ha         1 POH       0.249250
     69 H53         -1.2500     3.9660   -11.9050 h4         1 POH       0.199000
     70 H13         -2.5100     6.0950    -4.8090 ha         1 POH       0.154750
     71 H33         -1.0890     8.0110    -9.1660 ha         1 POH       0.181250
     72 H43         -2.5550     7.8130   -11.1480 h4         1 POH       0.199000
     73 H813        -3.0320     6.7900   -13.1260 h1         1 POH       0.108617
     74 H823        -2.4160     5.1710   -13.4920 h1         1 POH       0.108617
     75 H833        -3.8010     5.3640   -12.3930 h1         1 POH       0.108617
     76 H23         -2.1890     6.0290    -7.4300 ha         1 POH       0.154750
     77 H63          0.2610     4.0040    -9.9490 ha         1 POH       0.181250
     78 H54          9.0500     4.4700    -9.9100 h4         1 POH       0.267000
     79 H14          2.0280     6.2060   -10.7210 ha         1 POH       0.213000
     80 H34          6.2710     8.3770    -8.9640 ha         1 POH       0.249250
     81 H44          8.1860     8.4610   -10.5290 h4         1 POH       0.267000
     82 H814         9.9110     7.5680   -11.5400 h1         1 POH       0.108617
     83 H824        10.6860     6.1910   -10.7340 h1         1 POH       0.108617
     84 H834         9.5510     5.9140   -12.0760 h1         1 POH       0.108617
     85 H24          4.6500     6.2940   -10.3820 ha         1 POH       0.213000
     86 H64          7.1640     4.2200    -8.3230 ha         1 POH       0.249250
     87 CXN          8.1240     5.2000     1.8000 c3         1 POH       0.006400
     88 CXO         -4.3580     6.2990     0.2730 c3         1 POH       0.154600
     89 CXP         -2.8610     5.7970   -12.7250 c3         1 POH       0.006400
     90 CXQ          9.7790     6.5410   -11.2180 c3         1 POH       0.154600
@<TRIPOS>BOND
     1     1     9 ar  
     2     1    10 2   
     3     1    49 1   
     4     2     6 1   
     5     2     8 2   
     6     2    50 1   
     7     3     4 ar  
     8     3     9 ar  
     9     3    15 1   
    10     4     5 ar  
    11     4    51 1   
    12     5    10 1   
    13     5    52 1   
    14     6     7 2   
    15     6    56 1   
    16     7    11 1   
    17     7    15 1   
    18     8    11 1   
    19     8    47 1   
    20     9    57 1   
    21    10    87 1   
    22    11    58 1   
    23    12    16 1   
    24    12    23 2   
    25    13    27 1   
    26    13    34 1   
    27    13    59 1   
    28    14    38 1   
    29    14    45 2   
    30    15    16 2   
    31    16    18 1   
    32    17    24 2   
    33    17    25 1   
    34    17    60 1   
    35    18    22 2   
    36    18    61 1   
    37    19    20 1   
    38    19    24 1   
    39    19    26 2   
    40    20    21 2   
    41    20    62 1   
    42    21    25 1   
    43    21    63 1   
    44    22    23 1   
    45    22    67 1   
    46    23    26 1   
    47    24    68 1   
    48    25    88 1   
    49    26    27 1   
    50    27    29 2   
    51    28    35 ar  
    52    28    36 2   
    53    28    69 1   
    54    29    33 1   
    55    29    70 1   
    56    30    31 ar  
    57    30    35 ar  
    58    30    37 1   
    59    31    32 ar  
    60    31    71 1   
    61    32    36 1   
    62    32    72 1   
    63    33    34 2   
    64    33    76 1   
    65    34    37 1   
    66    35    77 1   
    67    36    89 1   
    68    37    38 2   
    69    38    40 1   
    70    39    46 2   
    71    39    48 1   
    72    39    78 1   
    73    40    44 2   
    74    40    79 1   
    75    41    42 1   
    76    41    46 1   
    77    41    47 2   
    78    42    43 2   
    79    42    80 1   
    80    43    48 1   
    81    43    81 1   
    82    44    45 1   
    83    44    85 1   
    84    45    47 1   
    85    46    86 1   
    86    48    90 1   
    87    53    87 1   
    88    54    87 1   
    89    55    87 1   
    90    64    88 1   
    91    65    88 1   
    92    66    88 1   
    93    73    89 1   
    94    74    89 1   
    95    75    89 1   
    96    82    90 1   
    97    83    90 1   
    98    84    90 1   
@<TRIPOS>SUBSTRUCTURE
     1 POH         1 TEMP              0 ****  ****    0 ROOT
