@<TRIPOS>MOLECULE
PPC
   32    32     1     0     0
SMALL
abcg2


@<TRIPOS>ATOM
      1 C1           0.5830    -0.9790    -0.1730 c5         1 PPC       0.407300
      2 C2           2.0780    -0.8700    -0.5160 c5         1 PPC       0.101300
      3 C3           2.1050     0.3550    -1.4460 c5         1 PPC       0.125300
      4 C4           0.7070     0.3430    -2.0740 c5         1 PPC       0.148300
      5 C5           0.7270    -0.0210    -3.5430 c3         1 PPC       0.249600
      6 O1           0.2040    -0.0900     0.8420 os         1 PPC      -0.608400
      7 O2           2.9630    -0.7140     0.5470 oh         1 PPC      -0.853000
      8 O3           2.3400     1.5320    -0.7170 oh         1 PPC      -0.745000
      9 P           -0.7500     0.0830    -5.7420 p5         1 PPC       1.298900
     10 O1P         -2.2570    -0.0930    -5.8800 o          1 PPC      -0.949167
     11 O2P         -0.2310     1.4760    -6.0850 o          1 PPC      -0.949167
     12 O3P          0.0920    -1.0530    -6.3130 o          1 PPC      -0.949167
     13 PA           0.1880    -0.6580     2.4230 p5         1 PPC       1.462400
     14 O1A         -0.8950    -1.6950     2.5340 o          1 PPC      -0.848000
     15 O2A          1.6240    -1.1190     2.6800 o          1 PPC      -0.848000
     16 PB           0.1490     0.8770     5.1190 p5         1 PPC       1.356500
     17 O1B         -0.6880     2.0500     5.6480 o          1 PPC      -0.962833
     18 O2B          1.6580     1.1030     5.2470 o          1 PPC      -0.962833
     19 O3B         -0.3250    -0.4920     5.6130 o          1 PPC      -0.962833
     20 C3A         -0.2070     0.8770     3.2710 c3         1 PPC      -0.756400
     21 O5          -0.5720    -0.0460    -4.0480 os         1 PPC      -0.574400
     22 O4          -0.0570    -0.6340    -1.3560 os         1 PPC      -0.440000
     23 H1           0.2830    -2.0050     0.0760 h2         1 PPC       0.041700
     24 H2           2.3320    -1.7590    -1.1120 h1         1 PPC      -0.002300
     25 H3           2.8770     0.2350    -2.2200 h1         1 PPC       0.000700
     26 H4           0.2440     1.3310    -1.9570 h1         1 PPC       0.059700
     27 H51          1.3530     0.7260    -4.0520 h1         1 PPC      -0.021800
     28 H52          1.2360    -0.9900    -3.6670 h1         1 PPC      -0.021800
     29 HO2          2.4930    -0.8880     1.4230 ho         1 PPC       0.610000
     30 HO3          2.7800     1.2450     0.0960 ho         1 PPC       0.526000
     31 H3A1         0.3350     1.7020     2.8010 hc         1 PPC       0.035700
     32 H3A2        -1.2720     1.0710     3.1090 hc         1 PPC       0.035700
@<TRIPOS>BOND
     1     1     2 1   
     2     1     6 1   
     3     1    22 1   
     4     1    23 1   
     5     2     3 1   
     6     2     7 1   
     7     2    24 1   
     8     3     4 1   
     9     3     8 1   
    10     3    25 1   
    11     4     5 1   
    12     4    22 1   
    13     4    26 1   
    14     5    21 1   
    15     5    27 1   
    16     5    28 1   
    17     6    13 1   
    18     7    29 1   
    19     8    30 1   
    20     9    10 1   
    21     9    11 1   
    22     9    12 1   
    23     9    21 1   
    24    13    14 1   
    25    13    15 1   
    26    13    20 1   
    27    16    17 1   
    28    16    18 1   
    29    16    19 1   
    30    16    20 1   
    31    20    31 1   
    32    20    32 1   
@<TRIPOS>SUBSTRUCTURE
     1 PPC         1 TEMP              0 ****  ****    0 ROOT
