@<TRIPOS>MOLECULE
PPK
   14    13     1     0     0
SMALL
abcg2


@<TRIPOS>ATOM
      1 O1G        -44.0340     4.7280     0.4810 o          1 PPK      -0.991167
      2 PG         -42.6680     5.3690     0.2250 p5         1 PPK       1.331800
      3 O2G        -42.1760     6.2320     1.3780 o          1 PPK      -0.991167
      4 O3G        -42.6040     6.0470    -1.1470 o          1 PPK      -0.991167
      5 N3B        -41.4950     4.0760     0.0860 n7         1 PPK      -0.988600
      6 PB         -40.5500     3.2600     1.2090 p5         1 PPK       1.537700
      7 O1B        -40.1680     1.9520     0.5550 o          1 PPK      -0.972500
      8 O2B        -39.4160     4.1230     1.6980 o          1 PPK      -0.972500
      9 O3A        -41.5620     2.9870     2.4360 os         1 PPK      -0.739800
     10 PA         -41.3750     2.4550     4.0170 p5         1 PPK       1.422900
     11 O1A        -42.8030     2.0720     4.3860 o          1 PPK      -0.999833
     12 O2A        -40.8300     3.6380     4.8040 o          1 PPK      -0.999833
     13 O4A        -40.4220     1.2690     3.9470 o          1 PPK      -0.999833
     14 H3B        -41.7150     3.4780    -0.6970 hn         1 PPK       0.354000
@<TRIPOS>BOND
     1     1     2 1   
     2     2     3 1   
     3     2     4 1   
     4     2     5 1   
     5     5     6 1   
     6     5    14 1   
     7     6     7 1   
     8     6     8 1   
     9     6     9 1   
    10     9    10 1   
    11    10    11 1   
    12    10    12 1   
    13    10    13 1   
@<TRIPOS>SUBSTRUCTURE
     1 PPK         1 TEMP              0 ****  ****    0 ROOT
