@<TRIPOS>MOLECULE
PXU
   17    17     1     0     0
SMALL
abcg2


@<TRIPOS>ATOM
      1 N           -0.8070     0.1100     1.1790 n7         1 PXU      -0.855400
      2 CA          -0.0710    -0.3190    -0.0010 c5         1 PXU       0.244200
      3 OA          -0.1790    -1.7060    -0.1680 oh         1 PXU      -0.692000
      4 CB          -0.7710     0.4050    -1.1600 c5         1 PXU      -0.102400
      5 CG          -2.2420     0.3030    -0.7660 c5         1 PXU      -0.100400
      6 CD          -2.2020     0.3340     0.7780 c5         1 PXU       0.157800
      7 C            1.4320     0.0450     0.1490 c          1 PXU       0.704000
      8 O            2.2160    -0.9180    -0.0030 o          1 PXU      -0.714000
      9 H           -0.4040     0.9860     1.4850 hn         1 PXU       0.424000
     10 H3           0.7570    -1.9840    -0.1620 ho         1 PXU       0.477000
     11 H4          -0.4530     1.4500    -1.1760 hc         1 PXU       0.044200
     12 H5          -0.5470    -0.0290    -2.1360 hc         1 PXU       0.044200
     13 H6          -2.8490     1.1090    -1.1800 hc         1 PXU       0.024200
     14 H7          -2.6680    -0.6360    -1.1220 hc         1 PXU       0.024200
     15 H8          -2.8560    -0.4360     1.1950 h1         1 PXU       0.017200
     16 H9          -2.5530     1.2890     1.1710 h1         1 PXU       0.017200
     17 OXT          1.7150     1.2260     0.4010 o          1 PXU      -0.714000
@<TRIPOS>BOND
     1     1     2 1   
     2     1     6 1   
     3     1     9 1   
     4     2     3 1   
     5     2     4 1   
     6     2     7 1   
     7     3    10 1   
     8     4     5 1   
     9     4    11 1   
    10     4    12 1   
    11     5     6 1   
    12     5    13 1   
    13     5    14 1   
    14     6    15 1   
    15     6    16 1   
    16     7     8 1   
    17     7    17 1   
@<TRIPOS>SUBSTRUCTURE
     1 PXU         1 TEMP              0 ****  ****    0 ROOT
