@<TRIPOS>MOLECULE
Q0P
   47    48     1     0     0
SMALL
abcg2


@<TRIPOS>ATOM
      1 C13        -28.9740   -31.5390   -43.6200 ce         1 Q0P       0.501800
      2 C21        -36.5870   -30.7580   -46.2810 ca         1 Q0P      -0.223000
      3 C20        -35.3770   -31.2440   -45.8180 ca         1 Q0P      -0.037000
      4 C16        -32.1450   -30.2550   -44.3070 c3         1 Q0P      -0.130400
      5 C19        -34.6570   -30.6020   -44.7990 ca         1 Q0P      -0.216600
      6 C17        -33.3310   -31.1860   -44.4590 c          1 Q0P       0.601700
      7 C15        -31.1260   -30.6590   -43.2350 c3         1 Q0P       0.003500
      8 C12        -28.0700   -32.5890   -44.0870 ca         1 Q0P      -0.195900
      9 C22        -37.1140   -29.6050   -45.6920 ca         1 Q0P      -0.072000
     10 C23        -36.4460   -28.9730   -44.6630 ca         1 Q0P      -0.243000
     11 C24        -35.2090   -29.4500   -44.1830 ca         1 Q0P       0.375000
     12 C01        -28.2390   -36.0160   -45.7350 c3         1 Q0P      -0.103400
     13 C02        -27.6980   -34.7630   -45.1150 ca         1 Q0P       0.226300
     14 C04        -25.8890   -33.5030   -44.4380 ca         1 Q0P       0.235900
     15 C05        -26.6730   -32.4620   -43.9720 ca         1 Q0P      -0.014300
     16 C06        -26.0330   -31.2440   -43.3620 c3         1 Q0P       0.262900
     17 C26        -31.8070   -31.0850   -41.8960 c          1 Q0P       0.741000
     18 C29        -28.5840   -33.7610   -44.6680 ca         1 Q0P       0.147100
     19 N03        -26.3820   -34.6200   -44.9950 nb         1 Q0P      -0.691000
     20 N14        -30.2380   -31.6900   -43.7260 n2         1 Q0P      -0.661900
     21 N25        -34.5910   -28.8000   -43.1440 nv         1 Q0P      -1.093000
     22 O07        -26.3970   -31.1330   -41.9940 os         1 Q0P      -0.571400
     23 O09        -26.9300   -29.8800   -39.9100 o          1 Q0P      -0.925833
     24 O10        -27.5530   -28.8600   -42.1760 o          1 Q0P      -0.925833
     25 O11        -25.1020   -28.9850   -41.4740 o          1 Q0P      -0.925833
     26 O18        -33.1750   -32.4000   -44.4410 o          1 Q0P      -0.530100
     27 O27        -32.9260   -30.5540   -41.6570 o          1 Q0P      -0.725000
     28 O28        -31.1840   -31.8650   -41.1520 o          1 Q0P      -0.725000
     29 O30        -29.9040   -33.9590   -44.8160 oh         1 Q0P      -0.610100
     30 P08        -26.5000   -29.5780   -41.3360 p5         1 Q0P       1.272900
     31 H1         -28.5410   -30.6390   -43.1770 h4         1 Q0P       0.091800
     32 H4         -31.6490   -30.2590   -45.2840 hc         1 Q0P       0.044200
     33 H5         -32.4780   -29.2350   -44.1360 hc         1 Q0P       0.044200
     34 H6         -30.5430   -29.7640   -42.9790 h1         1 Q0P       0.087700
     35 H7         -38.0600   -29.2050   -46.0350 ha         1 Q0P       0.072000
     36 H8         -36.8750   -28.0950   -44.1930 ha         1 Q0P       0.087000
     37 H9         -27.4180   -36.6780   -46.0050 hc         1 Q0P       0.020033
     38 H10        -28.9070   -36.5380   -45.0460 hc         1 Q0P       0.020033
     39 H11        -28.8230   -35.7910   -46.6310 hc         1 Q0P       0.020033
     40 H12        -24.8090   -33.4400   -44.3610 h4         1 Q0P      -0.003900
     41 H13        -24.9460   -31.3240   -43.4610 h1         1 Q0P       0.008700
     42 H14        -26.3470   -30.3470   -43.9060 h1         1 Q0P       0.008700
     43 H15        -35.1670   -28.1440   -42.6400 hn         1 Q0P       0.498500
     44 H16        -33.9530   -29.3470   -42.5610 hn         1 Q0P       0.498500
     45 H20        -30.3550   -33.1320   -44.4230 ho         1 Q0P       0.553000
     46 H2         -37.1100   -31.2570   -47.0850 ha         1 Q0P       0.084000
     47 H3         -34.9420   -32.1300   -46.2620 ha         1 Q0P       0.113000
@<TRIPOS>BOND
     1     1     8 1   
     2     1    20 2   
     3     1    31 1   
     4     2     3 ar  
     5     2     9 ar  
     6     2    46 1   
     7     3     5 ar  
     8     3    47 1   
     9     4     6 1   
    10     4     7 1   
    11     4    32 1   
    12     4    33 1   
    13     5     6 1   
    14     5    11 ar  
    15     6    26 2   
    16     7    17 1   
    17     7    20 1   
    18     7    34 1   
    19     8    15 ar  
    20     8    18 ar  
    21     9    10 ar  
    22     9    35 1   
    23    10    11 ar  
    24    10    36 1   
    25    11    21 1   
    26    12    13 1   
    27    12    37 1   
    28    12    38 1   
    29    12    39 1   
    30    13    18 ar  
    31    13    19 ar  
    32    14    15 ar  
    33    14    19 ar  
    34    14    40 1   
    35    15    16 1   
    36    16    22 1   
    37    16    41 1   
    38    16    42 1   
    39    17    27 1   
    40    17    28 1   
    41    18    29 1   
    42    21    43 1   
    43    21    44 1   
    44    22    30 1   
    45    23    30 1   
    46    24    30 1   
    47    25    30 1   
    48    29    45 1   
@<TRIPOS>SUBSTRUCTURE
     1 Q0P         1 TEMP              0 ****  ****    0 ROOT
