@<TRIPOS>MOLECULE
Q1X
   90    94     1     0     0
SMALL
abcg2


@<TRIPOS>ATOM
      1 C01          9.5520    22.9010   -11.8100 c3         1 Q1X      -0.104100
      2 C02         10.3730    24.1390   -11.4650 c3         1 Q1X       0.160000
      3 C04         12.0670    23.2710   -13.1650 c3         1 Q1X       0.099300
      4 C05         12.1270    25.5480   -12.2350 c          1 Q1X       0.641100
      5 C07         13.7920    27.0670   -13.1690 c3         1 Q1X       0.058000
      6 C08         15.0640    27.0770   -12.3480 c3         1 Q1X       0.261000
      7 C13         10.7070    24.1120    -9.9940 ca         1 Q1X       0.016700
      8 C14          9.8120    24.6330    -9.0680 ca         1 Q1X      -0.100500
      9 C15         10.0950    24.5770    -7.7250 ca         1 Q1X      -0.076000
     10 C17         11.5900    23.9800    -5.8450 c5         1 Q1X       0.288300
     11 C19         10.8000    25.4290    -4.2210 c5         1 Q1X       0.117300
     12 C20         10.2520    26.7320    -4.7700 c3         1 Q1X       0.219600
     13 C28          9.4210    29.2350    -9.8890 c3         1 Q1X       0.241600
     14 C29          9.0880    29.8210   -11.2500 c5         1 Q1X       0.110300
     15 C31          8.7620    28.6910   -13.2470 c5         1 Q1X       0.262300
     16 C33          8.5180    26.2380   -13.8370 cc         1 Q1X       0.494700
     17 C35         10.1300    26.0050   -15.1910 ca         1 Q1X      -0.078600
     18 C36         10.1930    27.3170   -14.7480 ca         1 Q1X       0.088500
     19 C38         11.9310    27.7590   -16.0170 ca         1 Q1X       0.095900
     20 C40         11.0930    25.6210   -16.1390 ca         1 Q1X       0.389900
     21 C42          7.4550    28.6050   -12.4630 c5         1 Q1X       0.241300
     22 C48          7.5940    29.8620   -11.6050 c5         1 Q1X       0.100300
     23 C52         12.3230    25.4210    -4.1100 c5         1 Q1X       0.096300
     24 C54         12.7040    24.9900    -5.5300 c5         1 Q1X       0.126300
     25 C56         12.1050    23.4770    -8.1620 ca         1 Q1X      -0.025300
     26 C57         11.8710    23.5200    -9.5120 ca         1 Q1X      -0.100500
     27 F09         15.6470    28.2840   -12.3920 f          1 Q1X      -0.128667
     28 F10         15.9590    26.1860   -12.7980 f          1 Q1X      -0.128667
     29 F11         14.8480    26.7880   -11.0600 f          1 Q1X      -0.128667
     30 N03         11.5660    24.3050   -12.2820 n          1 Q1X      -0.430800
     31 N06         13.1310    25.7980   -13.1240 ns         1 Q1X      -0.523900
     32 N16         11.2300    24.0120    -7.2940 na         1 Q1X       0.005300
     33 N32          9.1560    27.4530   -13.8710 na         1 Q1X      -0.224300
     34 N34          9.0760    25.3480   -14.6100 nd         1 Q1X      -0.652100
     35 N37         11.0770    28.2370   -15.1300 nb         1 Q1X      -0.164000
     36 N39         11.9910    26.5320   -16.5290 nb         1 Q1X      -0.345000
     37 N41         11.1540    24.3860   -16.6510 nv         1 Q1X      -1.098900
     38 O12         11.7470    26.3920   -11.4330 o          1 Q1X      -0.564100
     39 O18         10.5000    24.3140    -5.0780 os         1 Q1X      -0.404000
     40 O21          8.8670    26.5820    -4.9620 os         1 Q1X      -0.579400
     41 O23          6.5840    27.3870    -5.5790 o          1 Q1X      -0.824000
     42 O24          8.5710    27.6010    -7.2210 os         1 Q1X      -0.750800
     43 O26          7.0390    26.4170    -8.9090 o          1 Q1X      -0.805500
     44 O27          8.8360    27.9690    -9.6690 os         1 Q1X      -0.602400
     45 O30          9.7220    29.0740   -12.2980 os         1 Q1X      -0.483000
     46 O43          6.3460    28.5100   -13.2750 os         1 Q1X      -0.555400
     47 O45          5.6830    26.1290   -12.5610 o          1 Q1X      -0.885167
     48 O46          4.0390    27.6820   -13.7940 o          1 Q1X      -0.885167
     49 O47          4.6840    28.1450   -11.3380 o          1 Q1X      -0.885167
     50 O49          7.2720    30.9780   -12.4090 oh         1 Q1X      -0.706000
     51 O50          6.8030    28.9870    -8.4400 o          1 Q1X      -0.805500
     52 O51          8.5120    29.1180    -5.1750 o          1 Q1X      -0.824000
     53 O53         12.7900    24.4440    -3.2230 oh         1 Q1X      -0.715000
     54 O55         13.9460    24.3850    -5.6880 oh         1 Q1X      -0.709000
     55 P22          8.0150    27.8010    -5.6780 p5         1 Q1X       1.439800
     56 P25          7.6340    27.7480    -8.5700 p5         1 Q1X       1.432800
     57 P44          5.0540    27.5220   -12.6780 p5         1 Q1X       1.251900
     58 H1           8.6250    22.9270   -11.2380 hc         1 Q1X       0.055033
     59 H2           9.2880    22.9000   -12.8670 hc         1 Q1X       0.055033
     60 H3          10.0620    21.9690   -11.5670 hc         1 Q1X       0.055033
     61 H4           9.7200    24.9990   -11.6290 h1         1 Q1X       0.153700
     62 H5          11.6460    22.3090   -12.8950 h1         1 Q1X       0.030033
     63 H6          11.8210    23.4570   -14.2130 h1         1 Q1X       0.030033
     64 H7          13.1480    23.1690   -13.0670 h1         1 Q1X       0.030033
     65 H8          14.0560    27.2990   -14.2010 h1         1 Q1X       0.106200
     66 H9          13.1340    27.8600   -12.8150 h1         1 Q1X       0.106200
     67 H10          8.8810    25.0940    -9.3730 ha         1 Q1X       0.199000
     68 H11          9.4280    24.9850    -6.9820 h4         1 Q1X       0.192000
     69 H12         11.9140    22.9520    -5.6510 h2         1 Q1X       0.089700
     70 H13         10.3240    25.2210    -3.2590 h1         1 Q1X       0.087700
     71 H14         10.7600    27.0070    -5.7030 h1         1 Q1X       0.025700
     72 H15         10.4760    27.5200    -4.0430 h1         1 Q1X       0.025700
     73 H16         10.5070    29.1320    -9.8050 h1         1 Q1X       0.011200
     74 H17          9.1120    29.9670    -9.1360 h1         1 Q1X       0.011200
     75 H18          9.5000    30.8380   -11.2490 h1         1 Q1X       0.005700
     76 H19          8.6850    29.4370   -14.0470 h2         1 Q1X       0.068700
     77 H20          7.6100    26.0820   -13.2550 h5         1 Q1X       0.188800
     78 H21         12.6840    28.4510   -16.3790 h5         1 Q1X       0.009100
     79 H22          7.5460    27.7500   -11.7800 h1         1 Q1X       0.081700
     80 H23          6.9670    29.8230   -10.7120 h1         1 Q1X       0.147700
     81 H24         12.7160    26.4180    -3.8710 h1         1 Q1X       0.062700
     82 H25         12.5950    25.8600    -6.1900 h1         1 Q1X       0.086700
     83 H26         12.9890    23.0180    -7.7450 h4         1 Q1X       0.192000
     84 H27         12.6070    23.0890   -10.1770 ha         1 Q1X       0.199000
     85 H28         13.3570    25.1380   -13.8490 hn         1 Q1X       0.317500
     86 H29         11.7810    24.1950   -17.4140 hn         1 Q1X       0.480000
     87 H30         10.4150    23.7270   -16.4780 hn         1 Q1X       0.480000
     88 H33          7.3790    31.7710   -11.8760 ho         1 Q1X       0.456000
     89 H36         12.5130    24.6800    -2.3320 ho         1 Q1X       0.502000
     90 H37         14.6140    25.0660    -5.8120 ho         1 Q1X       0.515000
@<TRIPOS>BOND
     1     1     2 1   
     2     1    58 1   
     3     1    59 1   
     4     1    60 1   
     5     2     7 1   
     6     2    30 1   
     7     2    61 1   
     8     3    30 1   
     9     3    62 1   
    10     3    63 1   
    11     3    64 1   
    12     4    30 1   
    13     4    31 1   
    14     4    38 2   
    15     5     6 1   
    16     5    31 1   
    17     5    65 1   
    18     5    66 1   
    19     6    27 1   
    20     6    28 1   
    21     6    29 1   
    22     7     8 ar  
    23     7    26 ar  
    24     8     9 ar  
    25     8    67 1   
    26     9    32 1   
    27     9    68 1   
    28    10    24 1   
    29    10    32 1   
    30    10    39 1   
    31    10    69 1   
    32    11    12 1   
    33    11    23 1   
    34    11    39 1   
    35    11    70 1   
    36    12    40 1   
    37    12    71 1   
    38    12    72 1   
    39    13    14 1   
    40    13    44 1   
    41    13    73 1   
    42    13    74 1   
    43    14    22 1   
    44    14    45 1   
    45    14    75 1   
    46    15    21 1   
    47    15    33 1   
    48    15    45 1   
    49    15    76 1   
    50    16    33 1   
    51    16    34 2   
    52    16    77 1   
    53    17    18 ar  
    54    17    20 ar  
    55    17    34 1   
    56    18    33 1   
    57    18    35 ar  
    58    19    35 ar  
    59    19    36 ar  
    60    19    78 1   
    61    20    36 ar  
    62    20    37 1   
    63    21    22 1   
    64    21    46 1   
    65    21    79 1   
    66    22    50 1   
    67    22    80 1   
    68    23    24 1   
    69    23    53 1   
    70    23    81 1   
    71    24    54 1   
    72    24    82 1   
    73    25    26 ar  
    74    25    32 2   
    75    25    83 1   
    76    26    84 1   
    77    31    85 1   
    78    37    86 1   
    79    37    87 1   
    80    40    55 1   
    81    41    55 1   
    82    42    55 1   
    83    42    56 1   
    84    43    56 1   
    85    44    56 1   
    86    46    57 1   
    87    47    57 1   
    88    48    57 1   
    89    49    57 1   
    90    50    88 1   
    91    51    56 1   
    92    52    55 1   
    93    53    89 1   
    94    54    90 1   
@<TRIPOS>SUBSTRUCTURE
     1 Q1X         1 TEMP              0 ****  ****    0 ROOT
