@<TRIPOS>MOLECULE
QBQ
   45    47     1     0     0
SMALL
abcg2


@<TRIPOS>ATOM
      1 O3          43.2590   -17.0890   -77.6910 o          1 QBQ      -0.884000
      2 C4          39.2370   -13.7070   -80.7870 cc         1 QBQ      -0.093000
      3 C5          40.3520   -11.9100   -79.4050 c5         1 QBQ       0.245300
      4 O4          41.0510   -16.5320   -76.6650 os         1 QBQ      -0.748800
      5 C6          42.1790   -12.7430   -78.2260 c5         1 QBQ       0.112300
      6 N1          39.5270   -10.3240   -81.7350 nc         1 QBQ      -0.628100
      7 C7          42.3600   -14.2570   -78.2580 c3         1 QBQ       0.232600
      8 C8          41.1350   -12.2620   -77.2240 c5         1 QBQ       0.106300
      9 N2          39.6180   -12.3970   -80.5410 na         1 QBQ       0.089000
     10 C9          39.8610   -12.4270   -78.0510 c5         1 QBQ       0.214300
     11 O5          38.5830   -16.8130   -76.4620 o          1 QBQ      -0.907000
     12 C10         38.2220   -11.8950   -83.7770 c          1 QBQ       0.618600
     13 O6          40.0770   -17.2910   -74.3960 o          1 QBQ      -0.907000
     14 N3          38.5020   -10.5250   -83.8370 ns         1 QBQ      -0.458400
     15 O7          39.8110   -14.8890   -75.2470 os         1 QBQ      -0.751800
     16 O8          39.2620   -12.7830   -73.9840 o          1 QBQ      -0.922500
     17 C           39.1250    -9.8010   -82.8610 cd         1 QBQ       0.648800
     18 O           41.7050   -12.3030   -79.5020 os         1 QBQ      -0.511000
     19 C1          39.2840   -11.6430   -81.6210 cc         1 QBQ       0.124400
     20 C2          38.6670   -12.4690   -82.5540 cd         1 QBQ      -0.304600
     21 C3          38.6450   -13.7860   -82.0080 cd         1 QBQ      -0.170000
     22 O1          42.7790   -14.6810   -76.9830 os         1 QBQ      -0.595400
     23 O11         41.2920   -10.8930   -76.9210 oh         1 QBQ      -0.725000
     24 O12         38.7280   -11.7830   -77.6090 oh         1 QBQ      -0.850000
     25 O13         37.6620   -12.4480   -84.7120 o          1 QBQ      -0.626000
     26 O2          43.1790   -16.3570   -75.1820 o          1 QBQ      -0.884000
     27 P           42.6610   -16.2790   -76.5810 p5         1 QBQ       1.500800
     28 P1          39.7660   -16.4630   -75.6080 p5         1 QBQ       1.560800
     29 P2          38.5210   -13.9000   -74.6920 p5         1 QBQ       1.391900
     30 H           40.2700   -10.8200   -79.4390 h2         1 QBQ       0.078700
     31 H1          43.1520   -12.2740   -78.0360 h1         1 QBQ       0.028700
     32 H9          41.4210   -14.7360   -78.5540 h1         1 QBQ       0.010700
     33 H8          43.1000   -14.5100   -79.0260 h1         1 QBQ       0.010700
     34 H2          41.1170   -12.8710   -76.3180 h1         1 QBQ       0.171700
     35 H3          39.6920   -13.5120   -78.1280 h1         1 QBQ       0.075700
     36 H16         38.2240   -10.0570   -84.6900 hn         1 QBQ       0.280500
     37 H5          39.6580    -7.9340   -82.3410 hn         1 QBQ       0.469000
     38 H4          38.8430    -8.0180   -83.8340 hn         1 QBQ       0.469000
     39 H6          38.2400   -14.6760   -82.4600 ha         1 QBQ       0.126000
     40 H14         42.1140   -10.7900   -76.4310 ho         1 QBQ       0.466000
     41 H15         38.3280   -12.4100   -76.8970 ho         1 QBQ       0.636000
     42 N           39.3610    -8.5000   -83.1180 nv         1 QBQ      -1.065200
     43 O10         37.8110   -13.4450   -75.9910 o          1 QBQ      -0.922500
     44 O9          37.6550   -14.8000   -73.8320 o          1 QBQ      -0.922500
     45 H7          39.4170   -14.4860   -80.0650 h4         1 QBQ       0.209000
@<TRIPOS>BOND
     1     1    27 1   
     2     2     9 1   
     3     2    21 2   
     4     2    45 1   
     5     3     9 1   
     6     3    10 1   
     7     3    18 1   
     8     3    30 1   
     9     4    27 1   
    10     4    28 1   
    11     5     7 1   
    12     5     8 1   
    13     5    18 1   
    14     5    31 1   
    15     6    17 2   
    16     6    19 1   
    17     7    22 1   
    18     7    32 1   
    19     7    33 1   
    20     8    10 1   
    21     8    23 1   
    22     8    34 1   
    23     9    19 1   
    24    10    24 1   
    25    10    35 1   
    26    11    28 1   
    27    12    14 1   
    28    12    20 1   
    29    12    25 2   
    30    13    28 1   
    31    14    17 1   
    32    14    36 1   
    33    15    28 1   
    34    15    29 1   
    35    16    29 1   
    36    17    42 1   
    37    19    20 2   
    38    20    21 1   
    39    21    39 1   
    40    22    27 1   
    41    23    40 1   
    42    24    41 1   
    43    26    27 1   
    44    29    43 1   
    45    29    44 1   
    46    37    42 1   
    47    38    42 1   
@<TRIPOS>SUBSTRUCTURE
     1 QBQ         1 TEMP              0 ****  ****    0 ROOT
