@<TRIPOS>MOLECULE
QBT
   36    37     1     0     0
SMALL
abcg2


@<TRIPOS>ATOM
      1 P          -24.2880    12.0530   -27.2800 p5         1 QBT       1.263900
      2 O1P        -23.9620    11.2820   -28.5540 o          1 QBT      -0.919167
      3 O2P        -24.5130    13.5510   -27.4610 o          1 QBT      -0.919167
      4 O5         -25.8860    11.5490   -26.8730 os         1 QBT      -0.599400
      5 C5         -26.1090    10.2000   -26.6250 c3         1 QBT       0.245600
      6 C4         -27.3250     9.9870   -25.7410 c5         1 QBT       0.120300
      7 O4         -27.0810    10.4380   -24.4080 os         1 QBT      -0.463000
      8 C3         -28.5960    10.7160   -26.2140 c5         1 QBT       0.144300
      9 O3         -29.7640     9.9310   -26.0880 oh         1 QBT      -0.747000
     10 C2         -28.6050    11.9580   -25.3330 c5         1 QBT      -0.155400
     11 C1         -27.9770    11.4600   -24.0340 c5         1 QBT       0.346700
     12 N1         -27.2660    12.4740   -23.2940 n          1 QBT      -0.394800
     13 C9         -27.5870    12.7400   -22.0090 c          1 QBT       0.624000
     14 O2         -28.4580    12.1850   -21.3650 o          1 QBT      -0.631000
     15 N3         -26.8330    13.7530   -21.4150 ns         1 QBT      -0.491500
     16 C8         -26.0450    14.6900   -22.0390 c          1 QBT       0.577000
     17 O6         -25.5220    15.5830   -21.4100 o          1 QBT      -0.570000
     18 C7         -25.9240    14.5050   -23.5290 c6         1 QBT      -0.141700
     19 C6         -26.0490    13.0300   -23.8580 c6         1 QBT       0.075000
     20 C5M        -24.6370    15.0910   -24.0870 c3         1 QBT      -0.090100
     21 O3P        -23.4360    11.6660   -26.0740 o          1 QBT      -0.919167
     22 H5'1       -26.2900     9.6350   -27.5530 h1         1 QBT       0.009200
     23 H5'2       -25.2500     9.7170   -26.1380 h1         1 QBT       0.009200
     24 H4         -27.5180     8.9070   -25.7110 h1         1 QBT       0.024700
     25 H3         -28.5320    10.9730   -27.2720 h1         1 QBT       0.113700
     26 H1         -28.7450    11.0640   -23.3650 h2         1 QBT       0.046700
     27 HA         -29.8790     9.6690   -25.1680 ho         1 QBT       0.484000
     28 H2'1       -27.9900    12.7350   -25.7860 hc         1 QBT       0.075700
     29 H2'2       -29.6040    12.3640   -25.1770 hc         1 QBT       0.075700
     30 H61C       -25.1730    12.4870   -23.4870 h1         1 QBT       0.122200
     31 H62C       -26.0630    12.8950   -24.9350 h1         1 QBT       0.122200
     32 H7         -27.0170    13.8950   -20.4300 hn         1 QBT       0.306500
     33 H52        -24.5770    14.8890   -25.1580 hc         1 QBT       0.063700
     34 H53        -24.5890    16.1670   -23.9380 hc         1 QBT       0.063700
     35 H54        -23.7610    14.6420   -23.6160 hc         1 QBT       0.063700
     36 H5M        -26.7810    15.0270   -23.9740 hc         1 QBT       0.064700
@<TRIPOS>BOND
     1     1     2 1   
     2     1     3 1   
     3     1     4 1   
     4     1    21 1   
     5     4     5 1   
     6     5     6 1   
     7     5    22 1   
     8     5    23 1   
     9     6     7 1   
    10     6     8 1   
    11     6    24 1   
    12     7    11 1   
    13     8     9 1   
    14     8    10 1   
    15     8    25 1   
    16     9    27 1   
    17    10    11 1   
    18    10    28 1   
    19    10    29 1   
    20    11    12 1   
    21    11    26 1   
    22    12    13 1   
    23    12    19 1   
    24    13    14 2   
    25    13    15 1   
    26    15    16 1   
    27    15    32 1   
    28    16    17 2   
    29    16    18 1   
    30    18    19 1   
    31    18    20 1   
    32    18    36 1   
    33    19    30 1   
    34    19    31 1   
    35    20    33 1   
    36    20    34 1   
    37    20    35 1   
@<TRIPOS>SUBSTRUCTURE
     1 QBT         1 TEMP              0 ****  ****    0 ROOT
