@<TRIPOS>MOLECULE
QSP
   58    59     1     0     0
SMALL
abcg2


@<TRIPOS>ATOM
      1 N1          40.3420    23.6180    25.0700 nb         1 QSP      -0.283000
      2 C2          39.7170    24.2770    24.1050 ca         1 QSP       0.128300
      3 CM2         38.5650    23.5980    23.4290 c3         1 QSP      -0.110400
      4 N3          40.0240    25.4910    23.6710 nb         1 QSP      -0.309000
      5 C4          41.0590    26.1280    24.2320 ca         1 QSP       0.389900
      6 N4          41.3160    27.3760    23.8090 nv         1 QSP      -1.048900
      7 C5          41.8190    25.5030    25.2560 ca         1 QSP      -0.252300
      8 C6          41.3830    24.2530    25.6200 ca         1 QSP       0.106900
      9 C7          43.0280    26.1390    25.9000 c3         1 QSP       0.281100
     10 N2          44.3180    25.7700    25.3240 nh         1 QSP      -0.594400
     11 C3          44.4790    26.0330    23.8940 c5         1 QSP       0.358500
     12 S1          45.6420    24.7530    23.2760 ss         1 QSP      -0.205600
     13 C9          45.6730    23.9420    24.8480 c2         1 QSP       0.007400
     14 C8          44.9390    24.5960    25.7580 c2         1 QSP      -0.013200
     15 CM4         44.8390    24.2220    27.2000 c3         1 QSP       0.006100
     16 C10         46.5510    22.7430    24.9840 c3         1 QSP      -0.023200
     17 C15         45.9970    21.5250    24.2510 c3         1 QSP       0.241600
     18 O7          46.9240    20.4700    24.3730 os         1 QSP      -0.615400
     19 PA          46.7910    19.1490    23.3790 p5         1 QSP       1.499800
     20 O1A         47.7590    18.1520    23.9500 o          1 QSP      -0.925500
     21 O2A         45.3330    18.7860    23.2700 o          1 QSP      -0.925500
     22 O3A         47.2480    19.6850    21.9390 os         1 QSP      -0.740800
     23 PB          48.5580    20.6690    21.3580 p5         1 QSP       1.354900
     24 O1B         48.7120    20.1180    19.9460 o          1 QSP      -0.952167
     25 O2B         49.7310    20.3960    22.2900 o          1 QSP      -0.952167
     26 O3B         47.9960    22.0850    21.4320 o          1 QSP      -0.952167
     27 C11         44.9330    27.4410    23.4730 c3         1 QSP      -0.110000
     28 P4          46.5910    28.1260    24.1780 p5         1 QSP       1.292500
     29 O5          46.0800    29.6000    24.3140 o          1 QSP      -0.900167
     30 O6          46.9150    27.4990    25.5280 o          1 QSP      -0.900167
     31 O8          47.6750    27.9550    23.1150 o          1 QSP      -0.900167
     32 C12         44.9570    27.5160    21.9330 c3         1 QSP      -0.054400
     33 O11         43.9740    28.3700    23.9760 oh         1 QSP      -0.816000
     34 C13         43.6110    27.3790    21.2160 c3         1 QSP      -0.175400
     35 C14         42.7790    28.6670    21.0800 c          1 QSP       0.722000
     36 O15         43.3940    29.7230    20.8410 o          1 QSP      -0.795000
     37 O16         41.5290    28.5520    21.1450 o          1 QSP      -0.795000
     38 H1          38.8260    23.3450    22.3990 hc         1 QSP       0.020367
     39 H2          38.2920    22.6810    23.9460 hc         1 QSP       0.020367
     40 H3          37.6960    24.2540    23.3850 hc         1 QSP       0.020367
     41 H4          40.9980    27.6340    22.8790 hn         1 QSP       0.541000
     42 H5          42.2250    27.7880    24.0140 hn         1 QSP       0.541000
     43 H6          41.8970    23.7150    26.4120 h4         1 QSP       0.003100
     44 H7          43.0410    25.8700    26.9560 h1         1 QSP       0.034200
     45 H8          42.9400    27.2230    25.8840 h1         1 QSP       0.034200
     46 H9          43.5240    25.8190    23.3990 h2         1 QSP       0.001700
     47 H10         45.0880    25.0730    27.8370 hc         1 QSP       0.002700
     48 H11         43.8400    23.8870    27.4830 hc         1 QSP       0.002700
     49 H12         45.5250    23.4140    27.4420 hc         1 QSP       0.002700
     50 H13         46.6930    22.4960    26.0380 hc         1 QSP       0.047200
     51 H14         47.5440    22.9650    24.5780 hc         1 QSP       0.047200
     52 H15         45.8220    21.7880    23.2030 h1         1 QSP       0.016700
     53 H16         45.0270    21.2560    24.6860 h1         1 QSP       0.016700
     54 H22         45.6540    26.7650    21.5520 hc         1 QSP       0.051200
     55 H23         45.3910    28.4740    21.6410 hc         1 QSP       0.051200
     56 H24         44.5970    29.1400    24.1920 ho         1 QSP       0.510000
     57 H25         42.9980    26.5820    21.6430 hc         1 QSP      -0.004300
     58 H26         43.8180    27.0540    20.1880 hc         1 QSP      -0.004300
@<TRIPOS>BOND
     1     1     2 ar  
     2     1     8 ar  
     3     2     3 1   
     4     2     4 ar  
     5     3    38 1   
     6     3    39 1   
     7     3    40 1   
     8     4     5 ar  
     9     5     6 1   
    10     5     7 ar  
    11     6    41 1   
    12     6    42 1   
    13     7     8 ar  
    14     7     9 1   
    15     8    43 1   
    16     9    10 1   
    17     9    44 1   
    18     9    45 1   
    19    10    11 1   
    20    10    14 1   
    21    11    12 1   
    22    11    27 1   
    23    11    46 1   
    24    12    13 1   
    25    13    14 2   
    26    13    16 1   
    27    14    15 1   
    28    15    47 1   
    29    15    48 1   
    30    15    49 1   
    31    16    17 1   
    32    16    50 1   
    33    16    51 1   
    34    17    18 1   
    35    17    52 1   
    36    17    53 1   
    37    18    19 1   
    38    19    20 1   
    39    19    21 1   
    40    19    22 1   
    41    22    23 1   
    42    23    24 1   
    43    23    25 1   
    44    23    26 1   
    45    27    28 1   
    46    27    32 1   
    47    27    33 1   
    48    28    29 1   
    49    28    30 1   
    50    28    31 1   
    51    32    34 1   
    52    32    54 1   
    53    32    55 1   
    54    33    56 1   
    55    34    35 1   
    56    34    57 1   
    57    34    58 1   
    58    35    36 1   
    59    35    37 1   
@<TRIPOS>SUBSTRUCTURE
     1 QSP         1 TEMP              0 ****  ****    0 ROOT
