@<TRIPOS>MOLECULE
QZK
   36    37     1     0     0
SMALL
abcg2


@<TRIPOS>ATOM
      1 OAE          8.7870     9.0270    17.6790 o          1 QZK      -0.901833
      2 PAW         10.0290     9.8090    17.2130 p5         1 QZK       1.286500
      3 OAF         10.1990    11.1370    17.9560 o          1 QZK      -0.901833
      4 OAA         10.1080     9.9770    15.6980 o          1 QZK      -0.901833
      5 CAV         11.4530     8.7110    17.8170 c3         1 QZK      -0.251500
      6 PAX         12.1600     7.3680    16.7040 p5         1 QZK       1.286500
      7 OAG         12.9680     8.1200    15.6410 o          1 QZK      -0.901833
      8 OAH         13.0580     6.5030    17.5980 o          1 QZK      -0.901833
      9 OAB         10.9760     6.5720    16.1420 o          1 QZK      -0.901833
     10 NAR         10.9500     8.0880    19.0730 n7         1 QZK      -0.701300
     11 SAY         11.5570     8.3570    20.5400 sy         1 QZK       1.051600
     12 OAC         12.9990     8.4020    20.4570 o          1 QZK      -0.629000
     13 OAD         10.9440     7.3810    21.4200 o          1 QZK      -0.629000
     14 CAU         11.0340     9.9500    21.1310 ca         1 QZK      -0.224500
     15 CAQ         11.9310    11.0090    21.1830 ca         1 QZK      -0.010500
     16 CAO         11.5040    12.2470    21.6430 ca         1 QZK      -0.123500
     17 CAP          9.7120    10.1280    21.5270 ca         1 QZK      -0.010500
     18 CAN          9.2940    11.3660    21.9840 ca         1 QZK      -0.123500
     19 CAT         10.1820    12.4470    22.0540 cp         1 QZK      -0.079000
     20 CAS          9.7320    13.7620    22.5590 cp         1 QZK       0.000000
     21 CAL          8.8080    13.8460    23.6070 ca         1 QZK      -0.127000
     22 CAJ          8.3830    15.0790    24.0850 ca         1 QZK      -0.127000
     23 CAI          8.8720    16.2540    23.5240 ca         1 QZK      -0.235000
     24 CAK          9.7910    16.1840    22.4810 ca         1 QZK      -0.127000
     25 CAM         10.2180    14.9510    22.0050 ca         1 QZK      -0.127000
     26 H3          12.2870     9.3650    18.0680 h1         1 QZK       0.045700
     27 H6           9.9290     8.0700    19.0620 hn         1 QZK       0.509000
     28 H7          12.9560    10.8630    20.8790 ha         1 QZK       0.116500
     29 H8          12.2130    13.0600    21.7040 ha         1 QZK       0.064500
     30 H9           9.0120     9.3070    21.4740 ha         1 QZK       0.116500
     31 H10          8.2630    11.4990    22.2770 ha         1 QZK       0.064500
     32 H11          8.4340    12.9400    24.0630 ha         1 QZK       0.108000
     33 H12          7.6760    15.1210    24.9020 ha         1 QZK       0.061500
     34 H13          8.5410    17.2140    23.8950 ha         1 QZK       0.055000
     35 H14         10.1700    17.0920    22.0320 ha         1 QZK       0.061500
     36 H15         10.9180    14.9110    21.1820 ha         1 QZK       0.108000
@<TRIPOS>BOND
     1     1     2 1   
     2     2     3 1   
     3     2     4 1   
     4     2     5 1   
     5     5     6 1   
     6     5    10 1   
     7     5    26 1   
     8     6     7 1   
     9     6     8 1   
    10     6     9 1   
    11    10    11 1   
    12    10    27 1   
    13    11    12 2   
    14    11    13 2   
    15    11    14 1   
    16    14    15 ar  
    17    14    17 ar  
    18    15    16 ar  
    19    15    28 1   
    20    16    19 ar  
    21    16    29 1   
    22    17    18 ar  
    23    17    30 1   
    24    18    19 ar  
    25    18    31 1   
    26    19    20 1   
    27    20    21 ar  
    28    20    25 ar  
    29    21    22 ar  
    30    21    32 1   
    31    22    23 ar  
    32    22    33 1   
    33    23    24 ar  
    34    23    34 1   
    35    24    25 ar  
    36    24    35 1   
    37    25    36 1   
@<TRIPOS>SUBSTRUCTURE
     1 QZK         1 TEMP              0 ****  ****    0 ROOT
