@<TRIPOS>MOLECULE
W20
   47    50     1     0     0
SMALL
abcg2


@<TRIPOS>ATOM
      1 C4          15.4260    -6.8440    29.8010 cp         1 W20      -0.060000
      2 C5          15.8700    -6.9140    31.1380 ca         1 W20      -0.094000
      3 C6          16.2150    -5.7880    31.8360 ca         1 W20      -0.084000
      4 C7          15.0740    -8.0770    29.0700 cp         1 W20      -0.071000
      5 C8          15.5950    -8.3460    27.8050 ca         1 W20      -0.007000
      6 C10         14.4470   -10.4310    27.7390 ca         1 W20       0.263000
      7 C15         10.7710   -10.2800    28.5130 c          1 W20       0.629100
      8 C20          8.9570    -8.5370    26.2760 c5         1 W20       0.167800
      9 C22         16.4900    -3.2790    31.8530 ca         1 W20       0.411900
     10 C24         15.8850    -2.1800    29.9530 ca         1 W20       0.175900
     11 C1          15.6710    -4.4150    29.9000 ca         1 W20       0.019000
     12 C2          16.1310    -4.5260    31.2250 ca         1 W20      -0.161000
     13 C3          15.3270    -5.6030    29.2250 ca         1 W20       0.198000
     14 C9          15.2840    -9.5180    27.1350 ca         1 W20      -0.175000
     15 C11         13.9200   -10.1910    28.9990 ca         1 W20      -0.336500
     16 C12         14.2310    -9.0120    29.6600 ca         1 W20       0.047000
     17 S13         12.8680   -11.3850    29.7720 sy         1 W20       1.198300
     18 N14         11.5300   -11.4050    28.7750 ns         1 W20      -0.598300
     19 C16          9.7490   -10.4800    27.4040 c5         1 W20       0.100500
     20 O17         10.9710    -9.2400    29.0900 o          1 W20      -0.515100
     21 C18         10.4620   -10.3650    26.0400 c5         1 W20      -0.101400
     22 C19         10.3480    -8.8740    25.7490 c5         1 W20      -0.096400
     23 N21          8.7580    -9.4260    27.4240 n7         1 W20      -0.862400
     24 N23         16.3520    -2.1350    31.2040 nb         1 W20      -0.290000
     25 N25         15.5430    -3.2290    29.2570 nb         1 W20      -0.194000
     26 N26         16.9670    -3.2360    33.0950 nv         1 W20      -1.073900
     27 O27         13.4520   -12.7040    29.6500 o          1 W20      -0.524000
     28 O28         12.4960   -10.8850    31.0760 o          1 W20      -0.524000
     29 F29         14.1290   -11.5510    27.0930 f          1 W20      -0.164000
     30 F30         14.8740    -5.4840    27.9740 f          1 W20      -0.151000
     31 H5          15.9560    -7.8840    31.6100 ha         1 W20       0.125000
     32 H6          16.5540    -5.8970    32.8580 ha         1 W20       0.113000
     33 H8          16.2730    -7.6480    27.3340 ha         1 W20       0.131000
     34 H20A         8.8770    -7.4870    26.5690 h1         1 W20       0.044200
     35 H20B         8.2080    -8.7140    25.4970 h1         1 W20       0.044200
     36 H24         15.7850    -1.2170    29.4610 h5         1 W20       0.049100
     37 H9          15.6940    -9.7230    26.1540 ha         1 W20       0.139000
     38 H12         13.8060    -8.8180    30.6360 ha         1 W20       0.155000
     39 H14         11.3780   -12.2650    28.2590 hn         1 W20       0.346500
     40 H16          9.2920   -11.4670    27.5270 h1         1 W20       0.060700
     41 H18A        11.4860   -10.7390    26.0400 hc         1 W20       0.054700
     42 H18B         9.9010   -10.9420    25.3020 hc         1 W20       0.054700
     43 H19A        11.1170    -8.3170    26.2900 hc         1 W20       0.060700
     44 H19B        10.4580    -8.6390    24.6910 hc         1 W20       0.060700
     45 H21B         7.8240    -9.8070    27.4450 hn         1 W20       0.426000
     46 H26A        17.2180    -2.3460    33.4950 hn         1 W20       0.503000
     47 H26B        17.1400    -4.0560    33.6480 hn         1 W20       0.503000
@<TRIPOS>BOND
     1     1     2 ar  
     2     1     4 1   
     3     1    13 ar  
     4     2     3 ar  
     5     2    31 1   
     6     3    12 ar  
     7     3    32 1   
     8     4     5 ar  
     9     4    16 ar  
    10     5    14 ar  
    11     5    33 1   
    12     6    14 ar  
    13     6    15 ar  
    14     6    29 1   
    15     7    18 1   
    16     7    19 1   
    17     7    20 2   
    18     8    22 1   
    19     8    23 1   
    20     8    34 1   
    21     8    35 1   
    22     9    12 ar  
    23     9    24 ar  
    24     9    26 1   
    25    10    24 ar  
    26    10    25 ar  
    27    10    36 1   
    28    11    12 ar  
    29    11    13 ar  
    30    11    25 ar  
    31    13    30 1   
    32    14    37 1   
    33    15    16 ar  
    34    15    17 1   
    35    16    38 1   
    36    17    18 1   
    37    17    27 2   
    38    17    28 2   
    39    18    39 1   
    40    19    21 1   
    41    19    23 1   
    42    19    40 1   
    43    21    22 1   
    44    21    41 1   
    45    21    42 1   
    46    22    43 1   
    47    22    44 1   
    48    23    45 1   
    49    26    46 1   
    50    26    47 1   
@<TRIPOS>SUBSTRUCTURE
     1 W20         1 TEMP              0 ****  ****    0 ROOT
