@<TRIPOS>MOLECULE
W8C
   30    31     1     0     0
SMALL
abcg2


@<TRIPOS>ATOM
      1 C02          6.9620     6.5930    19.1060 cc         1 W8C       0.630800
      2 C10          8.0370     9.7430    16.8810 c2         1 W8C      -0.281000
      3 C11          7.2060     7.5410    21.2350 c3         1 W8C       0.228900
      4 C13          5.8310     5.9780    22.6430 ca         1 W8C      -0.079000
      5 C15          3.5500     7.4950    22.2190 ca         1 W8C      -0.115500
      6 C16          4.6290     5.6010    23.2290 ca         1 W8C      -0.115500
      7 C17          3.4850     6.3560    23.0140 ca         1 W8C      -0.096000
      8 N01          6.6120     6.6820    17.7970 na         1 W8C      -0.373000
      9 C03          6.6050     5.3850    17.3830 cc         1 W8C       0.499800
     10 N04          7.1330     5.3620    19.4680 nd         1 W8C      -0.424000
     11 N05          6.9060     4.5880    18.3580 nd         1 W8C      -0.351000
     12 O06          7.0970     7.6960    19.8150 os         1 W8C      -0.452300
     13 S07          6.2350     4.9520    15.7320 sh         1 W8C      -0.350100
     14 C08          6.3780     7.8960    17.0300 c3         1 W8C       0.119800
     15 C09          7.6620     8.5110    16.5660 c2         1 W8C      -0.250200
     16 C12          5.9040     7.1180    21.8520 ca         1 W8C      -0.134300
     17 C14          4.7530     7.8760    21.6460 ca         1 W8C      -0.079000
     18 H23          7.4280    10.3810    17.5110 ha         1 W8C       0.167000
     19 H22          8.9640    10.1610    16.5130 ha         1 W8C       0.167000
     20 H25          8.0050     6.8370    21.4800 h1         1 W8C       0.072700
     21 H24          7.5040     8.5270    21.5890 h1         1 W8C       0.072700
     22 H28          2.6610     8.0890    22.0510 ha         1 W8C       0.114000
     23 H29          4.5860     4.7120    23.8450 ha         1 W8C       0.114000
     24 H30          2.5470     6.0610    23.4650 ha         1 W8C       0.113000
     25 H18          6.2610     3.6340    15.9560 hs         1 W8C       0.238800
     26 H19          5.7420     7.6300    16.1830 h1         1 W8C       0.072700
     27 H20          5.8080     8.5900    17.6460 h1         1 W8C       0.072700
     28 H21          8.2900     7.8910    15.9350 ha         1 W8C       0.185000
     29 H27          4.7940     8.7710    21.0350 ha         1 W8C       0.117500
     30 H26          6.7200     5.3780    22.8020 ha         1 W8C       0.117500
@<TRIPOS>BOND
     1     1     8 1   
     2     1    10 2   
     3     1    12 1   
     4     2    15 2   
     5     2    18 1   
     6     2    19 1   
     7     3    12 1   
     8     3    16 1   
     9     3    20 1   
    10     3    21 1   
    11     4     6 ar  
    12     4    16 ar  
    13     4    30 1   
    14     5     7 ar  
    15     5    17 ar  
    16     5    22 1   
    17     6     7 ar  
    18     6    23 1   
    19     7    24 1   
    20     8     9 1   
    21     8    14 1   
    22     9    11 2   
    23     9    13 1   
    24    10    11 1   
    25    13    25 1   
    26    14    15 1   
    27    14    26 1   
    28    14    27 1   
    29    15    28 1   
    30    16    17 ar  
    31    17    29 1   
@<TRIPOS>SUBSTRUCTURE
     1 W8C         1 TEMP              0 ****  ****    0 ROOT
