@<TRIPOS>MOLECULE
W92
   20    21     1     0     0
SMALL
abcg2


@<TRIPOS>ATOM
      1 C10         -1.1930     0.2280     0.2960 c5         1 W92       0.019200
      2 C13         -2.3560    -0.7390    -0.0880 c          1 W92       0.706000
      3 O01         -0.0160     1.9900    -0.7900 os         1 W92      -0.474000
      4 O02          2.8590    -1.1470    -0.8110 o          1 W92      -0.758500
      5 O03          3.5210    -0.3450     1.1640 o          1 W92      -0.758500
      6 O04         -2.2890    -1.2680    -1.2150 o          1 W92      -0.744000
      7 O05         -3.2750    -0.8640     0.7450 o          1 W92      -0.744000
      8 N06         -1.1360     0.5520     1.7180 n8         1 W92      -0.982200
      9 C07          0.1540    -0.2790    -0.2230 cx         1 W92      -0.106700
     10 C08          0.7950     0.8560    -0.9210 cx         1 W92       0.093300
     11 C09          1.4230     0.3330     0.3380 cx         1 W92      -0.239700
     12 C11         -1.3330     1.5330    -0.5130 c5         1 W92       0.176600
     13 C12          2.7100    -0.4580     0.2220 c          1 W92       0.737000
     14 H3          -2.0930     0.6260     2.0430 hn         1 W92       0.379500
     15 H4          -0.7570    -0.2460     2.2170 hn         1 W92       0.379500
     16 H6           0.2190    -1.2810    -0.6230 hc         1 W92       0.109700
     17 H7           1.3080     0.7530    -1.8730 h1         1 W92       0.086700
     18 H8          -1.8710     1.3520    -1.4520 h1         1 W92       0.022200
     19 H9          -1.8630     2.3110     0.0430 h1         1 W92       0.022200
     20 H5           1.3150     0.9550     1.2200 hc         1 W92       0.075700
@<TRIPOS>BOND
     1     1     2 1   
     2     1     8 1   
     3     1     9 1   
     4     1    12 1   
     5     2     6 1   
     6     2     7 1   
     7     3    10 1   
     8     3    12 1   
     9     4    13 1   
    10     5    13 1   
    11     8    14 1   
    12     8    15 1   
    13     9    10 1   
    14     9    11 1   
    15     9    16 1   
    16    10    11 1   
    17    10    17 1   
    18    11    13 1   
    19    11    20 1   
    20    12    18 1   
    21    12    19 1   
@<TRIPOS>SUBSTRUCTURE
     1 W92         1 TEMP              0 ****  ****    0 ROOT
