@<TRIPOS>MOLECULE
WES
  150   150     1     0     0
SMALL
abcg2


@<TRIPOS>ATOM
      1 C10          8.8640     2.0540     0.9840 c2         1 WES      -0.110200
      2 C13          5.7240     1.2900    -1.1310 c3         1 WES      -0.125400
      3 C15          3.8530     1.1080    -2.7970 c3         1 WES      -0.112400
      4 C17          1.9900     0.6680    -4.3790 c3         1 WES      -0.158400
      5 C21         -0.8620     0.4650    -6.6910 c3         1 WES       0.179600
      6 C22         -2.1370    -0.2840    -6.3680 c3         1 WES       0.168300
      7 C05         11.1370     6.7780     4.0580 c3         1 WES      -0.078400
      8 C06         11.3960     5.3780     3.5160 c3         1 WES      -0.073400
      9 C07         10.1220     4.6540     3.0990 c3         1 WES      -0.078400
     10 C08         10.3780     3.2310     2.6010 c3         1 WES      -0.012200
     11 C09          9.1190     2.5300     2.2000 c2         1 WES      -0.337200
     12 C11          7.6030     1.3660     0.5680 c3         1 WES      -0.091200
     13 C12          6.9140     2.0760    -0.5980 c3         1 WES      -0.025400
     14 C14          5.0240     1.9490    -2.3160 c3         1 WES      -0.035400
     15 C16          3.1400     1.6060    -4.0480 c3         1 WES      -0.045400
     16 C18          1.1920     1.0000    -5.6080 c          1 WES       0.617100
     17 C23         -1.9800    -1.7900    -6.1150 c3         1 WES       0.236600
     18 C29          0.9090    -2.9350    -2.0890 c6         1 WES       0.151300
     19 C30          0.4390    -2.3500    -0.7690 c6         1 WES       0.128800
     20 C32          1.3430    -2.8050     0.3680 c6         1 WES       0.268300
     21 C38          2.7920    -2.3470     0.1070 c6         1 WES       0.204300
     22 C44          3.3190    -2.9570    -1.2190 c6         1 WES       0.268300
     23 C50          2.3700    -2.6140    -2.3840 c6         1 WES       0.128800
     24 C55         -4.2820     0.9790    -3.6370 c3         1 WES      -0.153400
     25 C56         -5.7430     1.2820    -3.3480 c3         1 WES      -0.057400
     26 C57         -5.8850     1.9230    -1.9730 c3         1 WES      -0.088400
     27 C58         -7.3100     2.3080    -1.6040 c3         1 WES      -0.068400
     28 C59         -7.3890     2.9060    -0.2050 c3         1 WES      -0.084400
     29 C60         -8.7730     3.4020     0.1860 c3         1 WES      -0.076400
     30 C61         -8.8000     3.9480     1.6150 c3         1 WES       0.027800
     31 C62        -10.1030     4.5830     1.9840 c2         1 WES      -0.452200
     32 C63        -10.8880     4.1800     2.9790 c2         1 WES      -0.425200
     33 C64        -12.2020     4.7900     3.3510 c3         1 WES       0.026800
     34 C65        -13.3670     3.8080     3.2100 c3         1 WES      -0.092400
     35 C66        -14.6990     4.4060     3.6420 c3         1 WES      -0.079400
     36 C67        -15.8680     3.4400     3.4960 c3         1 WES      -0.087400
     37 C68        -17.1980     4.0390     3.9290 c3         1 WES      -0.083400
     38 C69        -18.3720     3.0820     3.7700 c3         1 WES      -0.096400
     39 O19          1.5390     1.7260    -6.5060 o          1 WES      -0.584000
     40 O20          0.0240     0.3630    -5.5830 os         1 WES      -0.382100
     41 O24         -1.5590    -2.0620    -4.8000 os         1 WES      -0.562400
     42 O26          0.7380    -2.9870    -5.5000 o          1 WES      -0.841500
     43 O27         -0.9240    -4.4760    -4.1650 o          1 WES      -0.841500
     44 O28          0.0720    -2.3570    -3.0950 os         1 WES      -0.637400
     45 O31          0.4230    -0.9350    -0.8120 oh         1 WES      -0.653000
     46 O33          0.8610    -2.3200     1.5880 os         1 WES      -0.496400
     47 O35         -0.4270    -2.3890     3.7260 o          1 WES      -0.890500
     48 O36         -1.3080    -3.7150     1.7080 o          1 WES      -0.890500
     49 O37          0.7720    -4.5310     2.9520 o          1 WES      -0.890500
     50 O39          3.6060    -2.7090     1.1710 os         1 WES      -0.379400
     51 O41          5.7920    -1.8560     2.1450 o          1 WES      -0.754833
     52 O42          3.8490    -0.2080     1.7510 o          1 WES      -0.754833
     53 O43          3.7030    -1.9750     3.6140 o          1 WES      -0.754833
     54 O45          4.5960    -2.4400    -1.4860 os         1 WES      -0.496400
     55 O47          5.9500    -4.6100    -0.9770 o          1 WES      -0.890500
     56 O48          6.1750    -3.5060    -3.2770 o          1 WES      -0.890500
     57 O49          7.0730    -2.3000    -1.2230 o          1 WES      -0.890500
     58 O51          2.8000    -3.2870    -3.5410 oh         1 WES      -0.653000
     59 O52         -2.7080     0.3780    -5.2320 os         1 WES      -0.409100
     60 O54         -4.8180    -0.2810    -5.6270 o          1 WES      -0.550000
     61 P25         -0.3580    -3.1250    -4.4710 p5         1 WES       1.416800
     62 P34         -0.1060    -3.3380     2.5770 p5         1 WES       1.263900
     63 P40          4.2920    -1.5840     2.2600 p5         1 WES       1.228900
     64 P46          6.0580    -3.3080    -1.7680 p5         1 WES       1.263900
     65 H10          9.6240     2.1640     0.2120 ha         1 WES       0.122000
     66 H15          6.0590     0.2870    -1.4240 hc         1 WES       0.132700
     67 H16          5.0080     1.1260    -0.3190 hc         1 WES       0.132700
     68 H2A          4.2060     0.0870    -2.9780 hc         1 WES       0.100200
     69 H19          3.1230     1.0190    -1.9850 hc         1 WES       0.100200
     70 H2E          2.3720    -0.3480    -4.5230 hc         1 WES       0.124200
     71 H2D          1.3100     0.5930    -3.5300 hc         1 WES       0.124200
     72 H21         -0.4150     0.0220    -7.5840 h1         1 WES       0.021200
     73 H22         -1.0860     1.5110    -6.9130 h1         1 WES       0.021200
     74 H23         -2.7830    -0.1770    -7.2460 h1         1 WES       0.007700
     75 H1B         10.4730     6.7110     4.9260 hc         1 WES       0.036700
     76 H1D         12.0770     5.4380     2.6600 hc         1 WES       0.022700
     77 H1C         11.9170     4.7870     4.2770 hc         1 WES       0.022700
     78 H1F          9.4310     4.6170     3.9480 hc         1 WES       0.042700
     79 H1E          9.6130     5.2250     2.3170 hc         1 WES       0.042700
     80 H1H         11.0770     3.2530     1.7590 hc         1 WES       0.014200
     81 H1G         10.8730     2.6670     3.4000 hc         1 WES       0.014200
     82 H1I          8.3640     2.4150     2.9770 ha         1 WES       0.187000
     83 H12          7.8250     0.3380     0.2630 hc         1 WES       0.128700
     84 H11          6.9110     1.2860     1.4140 hc         1 WES       0.128700
     85 H13          7.6390     2.2360    -1.4030 hc         1 WES      -0.021300
     86 H14          6.5890     3.0700    -0.2730 hc         1 WES      -0.021300
     87 H18          4.6700     2.9470    -2.0340 hc         1 WES      -0.018800
     88 H17          5.7380     2.0910    -3.1340 hc         1 WES      -0.018800
     89 H2B          2.7650     2.6210    -3.8900 hc         1 WES       0.006700
     90 H2C          3.8440     1.6530    -4.8830 hc         1 WES       0.006700
     91 H24         -2.9450    -2.2750    -6.2790 h1         1 WES       0.012700
     92 H25         -1.2950    -2.1890    -6.8690 h1         1 WES       0.012700
     93 H29          0.7790    -4.0250    -2.0470 h1         1 WES       0.055700
     94 H30         -0.5710    -2.7320    -0.5670 h1         1 WES       0.048200
     95 H32          1.3370    -3.9080     0.3490 h1         1 WES       0.058200
     96 H38          2.7960    -1.2560    -0.0100 h1         1 WES       0.077700
     97 H44          3.3440    -4.0520    -1.1010 h1         1 WES       0.058200
     98 H50          2.4320    -1.5270    -2.5190 h1         1 WES       0.048200
     99 H56         -3.8920     0.3110    -2.8610 hc         1 WES       0.094200
    100 H55         -3.6780     1.8870    -3.5720 hc         1 WES       0.094200
    101 H58         -6.1570     1.9440    -4.1150 hc         1 WES       0.029700
    102 H57         -6.3310     0.3620    -3.3850 hc         1 WES       0.029700
    103 H59         -5.5030     1.2260    -1.2190 hc         1 WES       0.052200
    104 H6A         -5.2440     2.8090    -1.9170 hc         1 WES       0.052200
    105 H6B         -7.7090     3.0160    -2.3380 hc         1 WES       0.017700
    106 H6C         -7.9520     1.4220    -1.6580 hc         1 WES       0.017700
    107 H6E         -7.0670     2.1520     0.5210 hc         1 WES       0.039700
    108 H6D         -6.6710     3.7300    -0.1230 hc         1 WES       0.039700
    109 H60         -9.1050     4.1750    -0.5160 hc         1 WES       0.014700
    110 H61         -9.4950     2.5840     0.1010 hc         1 WES       0.014700
    111 H63         -8.5800     3.1380     2.3160 hc         1 WES       0.000700
    112 H62         -7.9910     4.6790     1.7240 hc         1 WES       0.000700
    113 H64        -10.4170     5.4270     1.3710 ha         1 WES       0.101000
    114 H65        -10.5770     3.3230     3.5750 ha         1 WES       0.119000
    115 H66        -12.1620     5.1330     4.3910 hc         1 WES      -0.024800
    116 H67        -12.3890     5.6770     2.7380 hc         1 WES      -0.024800
    117 H69        -13.4310     3.4740     2.1700 hc         1 WES       0.018200
    118 H68        -13.1620     2.9110     3.8050 hc         1 WES       0.018200
    119 H7A        -14.6270     4.7320     4.6850 hc         1 WES       0.003700
    120 H7B        -14.8980     5.3080     3.0540 hc         1 WES       0.003700
    121 H7C        -15.9390     3.1120     2.4530 hc         1 WES       0.013700
    122 H7D        -15.6690     2.5360     4.0820 hc         1 WES       0.013700
    123 H7F        -17.1290     4.3570     4.9760 hc         1 WES      -0.000300
    124 H7E        -17.3910     4.9490     3.3490 hc         1 WES      -0.000300
    125 H7G        -18.4430     2.7650     2.7240 hc         1 WES       0.002700
    126 H7H        -18.1810     2.1710     4.3490 hc         1 WES       0.002700
    127 H31         -0.1330    -0.6810    -1.5560 ho         1 WES       0.429000
    128 H51          2.2180    -3.0650    -4.2880 ho         1 WES       0.429000
    129 C1         -19.7030     3.6830     4.2050 c3         1 WES      -0.089400
    130 C2         -20.8720     2.7240     4.0300 c3         1 WES      -0.096100
    131 C3          12.4090     7.5190     4.4530 c3         1 WES      -0.074400
    132 C4          12.1430     8.9060     5.0250 c3         1 WES      -0.083400
    133 C5          13.4120     9.6550     5.4130 c3         1 WES      -0.077400
    134 C6          13.1320    11.0350     5.9920 c3         1 WES      -0.091100
    135 H1          10.5950     7.3640     3.3080 hc         1 WES       0.036700
    136 H2         -19.6350     3.9910     5.2530 hc         1 WES      -0.007800
    137 H20        -19.8900     4.5970     3.6340 hc         1 WES      -0.007800
    138 H26        -21.8130     3.1740     4.3470 hc         1 WES      -0.026633
    139 H27        -20.9840     2.4250     2.9860 hc         1 WES      -0.026633
    140 H28        -20.7270     1.8150     4.6180 hc         1 WES      -0.026633
    141 H33         12.9610     6.9250     5.1900 hc         1 WES       0.024200
    142 H34         13.0660     7.6040     3.5810 hc         1 WES       0.024200
    143 H35         11.5820     9.4990     4.2940 hc         1 WES       0.030200
    144 H36         11.4940     8.8160     5.9030 hc         1 WES       0.030200
    145 H37         13.9750     9.0600     6.1390 hc         1 WES       0.018700
    146 H39         14.0590     9.7500     4.5350 hc         1 WES       0.018700
    147 H40         12.5990    11.6630     5.2760 hc         1 WES       0.004700
    148 H41         12.5160    10.9670     6.8910 hc         1 WES       0.004700
    149 H42         14.0540    11.5520     6.2630 hc         1 WES       0.004700
    150 C53         -4.0070     0.3010    -4.9510 c          1 WES       0.619100
@<TRIPOS>BOND
     1     1    11 2   
     2     1    12 1   
     3     1    65 1   
     4     2    13 1   
     5     2    14 1   
     6     2    66 1   
     7     2    67 1   
     8     3    14 1   
     9     3    15 1   
    10     3    68 1   
    11     3    69 1   
    12     4    15 1   
    13     4    16 1   
    14     4    70 1   
    15     4    71 1   
    16     5     6 1   
    17     5    40 1   
    18     5    72 1   
    19     5    73 1   
    20     6    17 1   
    21     6    59 1   
    22     6    74 1   
    23     7     8 1   
    24     7    75 1   
    25     7   131 1   
    26     7   135 1   
    27     8     9 1   
    28     8    76 1   
    29     8    77 1   
    30     9    10 1   
    31     9    78 1   
    32     9    79 1   
    33    10    11 1   
    34    10    80 1   
    35    10    81 1   
    36    11    82 1   
    37    12    13 1   
    38    12    83 1   
    39    12    84 1   
    40    13    85 1   
    41    13    86 1   
    42    14    87 1   
    43    14    88 1   
    44    15    89 1   
    45    15    90 1   
    46    16    39 2   
    47    16    40 1   
    48    17    41 1   
    49    17    91 1   
    50    17    92 1   
    51    18    19 1   
    52    18    23 1   
    53    18    44 1   
    54    18    93 1   
    55    19    20 1   
    56    19    45 1   
    57    19    94 1   
    58    20    21 1   
    59    20    46 1   
    60    20    95 1   
    61    21    22 1   
    62    21    50 1   
    63    21    96 1   
    64    22    23 1   
    65    22    54 1   
    66    22    97 1   
    67    23    58 1   
    68    23    98 1   
    69    24    25 1   
    70    24    99 1   
    71    24   100 1   
    72    24   150 1   
    73    25    26 1   
    74    25   101 1   
    75    25   102 1   
    76    26    27 1   
    77    26   103 1   
    78    26   104 1   
    79    27    28 1   
    80    27   105 1   
    81    27   106 1   
    82    28    29 1   
    83    28   107 1   
    84    28   108 1   
    85    29    30 1   
    86    29   109 1   
    87    29   110 1   
    88    30    31 1   
    89    30   111 1   
    90    30   112 1   
    91    31    32 2   
    92    31   113 1   
    93    32    33 1   
    94    32   114 1   
    95    33    34 1   
    96    33   115 1   
    97    33   116 1   
    98    34    35 1   
    99    34   117 1   
   100    34   118 1   
   101    35    36 1   
   102    35   119 1   
   103    35   120 1   
   104    36    37 1   
   105    36   121 1   
   106    36   122 1   
   107    37    38 1   
   108    37   123 1   
   109    37   124 1   
   110    38   125 1   
   111    38   126 1   
   112    38   129 1   
   113    41    61 1   
   114    42    61 1   
   115    43    61 1   
   116    44    61 1   
   117    45   127 1   
   118    46    62 1   
   119    47    62 1   
   120    48    62 1   
   121    49    62 1   
   122    50    63 1   
   123    51    63 1   
   124    52    63 1   
   125    53    63 1   
   126    54    64 1   
   127    55    64 1   
   128    56    64 1   
   129    57    64 1   
   130    58   128 1   
   131    59   150 1   
   132    60   150 2   
   133   129   130 1   
   134   129   136 1   
   135   129   137 1   
   136   130   138 1   
   137   130   139 1   
   138   130   140 1   
   139   131   132 1   
   140   131   141 1   
   141   131   142 1   
   142   132   133 1   
   143   132   143 1   
   144   132   144 1   
   145   133   134 1   
   146   133   145 1   
   147   133   146 1   
   148   134   147 1   
   149   134   148 1   
   150   134   149 1   
@<TRIPOS>SUBSTRUCTURE
     1 WES         1 TEMP              0 ****  ****    0 ROOT
