@<TRIPOS>MOLECULE
WJB
   75    76     1     0     0
SMALL
abcg2


@<TRIPOS>ATOM
      1 C02          4.5830     0.1490    -0.0310 c3         1 WJB      -0.211000
      2 C05          1.2350    -0.8060     0.9910 c          1 WJB       0.634100
      3 C07         -1.1000    -0.4500     1.6150 c3         1 WJB       0.037700
      4 C08         -1.1720    -0.4040     3.1440 c3         1 WJB      -0.088400
      5 C09         -2.4810    -0.8800     3.7760 c3         1 WJB      -0.057700
      6 C10         -2.8040    -2.3320     3.4360 c3         1 WJB      -0.089600
      7 C12         -2.1680     0.4480     0.9910 c          1 WJB       0.585100
      8 C14         -4.2280     0.4690    -0.3630 c3         1 WJB       0.114700
      9 C15         -4.7400    -0.4480    -1.4760 c3         1 WJB      -0.084400
     10 C16         -3.6210    -1.1280    -2.2900 c5         1 WJB      -0.151700
     11 C17         -3.4110    -2.5480    -1.7770 c          1 WJB       0.563000
     12 C19         -4.5040    -2.7720    -3.8410 c5         1 WJB       0.097000
     13 C20         -3.9560    -1.3460    -3.7700 c5         1 WJB      -0.088400
     14 C22         -5.3150     0.9200     0.6260 c3         1 WJB      -0.089700
     15 C26          4.2070     0.7970    -1.3570 c3         1 WJB      -0.082600
     16 C28          7.3540     0.2410    -0.8580 ca         1 WJB      -0.252500
     17 C30          9.2150     1.6710    -0.4020 ca         1 WJB      -0.131500
     18 S2          -6.7240     1.7900    -0.1500 s6         1 WJB       1.321600
     19 C01          4.8730     1.1910     1.0420 c3         1 WJB      -0.082600
     20 C03          3.5220    -0.8610     0.4300 c3         1 WJB       0.196600
     21 C11         -2.4050    -0.7010     5.2890 c3         1 WJB      -0.089600
     22 C29          8.2100     0.8370     0.0610 ca         1 WJB      -0.013500
     23 C31          9.3610     1.8990    -1.7640 ca         1 WJB      -0.059000
     24 C32          8.5050     1.2920    -2.6730 ca         1 WJB      -0.131500
     25 C33          7.4970     0.4520    -2.2250 ca         1 WJB      -0.013500
     26 N06          0.1830     0.0200     1.1360 ns         1 WJB      -0.482900
     27 N13         -3.1720    -0.2000     0.3850 ns         1 WJB      -0.504900
     28 N18         -3.8730    -3.3980    -2.6980 ns         1 WJB      -0.503900
     29 O04          2.3370    -0.1140     0.6610 os         1 WJB      -0.459100
     30 O21         -2.9520    -2.8640    -0.6820 o          1 WJB      -0.590000
     31 O25          1.2100    -2.0110     1.1150 o          1 WJB      -0.538000
     32 S27          6.0960    -0.8690    -0.2800 sy         1 WJB       1.003500
     33 H1          -1.2240    -1.4750     1.2640 h1         1 WJB       0.098700
     34 H2          -0.3510    -1.0150     3.5320 hc         1 WJB       0.047200
     35 H3          -0.9720     0.6240     3.4640 hc         1 WJB       0.047200
     36 H4          -3.3000    -0.2480     3.4130 hc         1 WJB       0.063700
     37 H5          -3.7020    -2.6580     3.9620 hc         1 WJB       0.032700
     38 H6          -2.9830    -2.4940     2.3730 hc         1 WJB       0.032700
     39 H7          -1.9870    -2.9910     3.7390 hc         1 WJB       0.032700
     40 H8          -3.8000     1.3630    -0.8220 h1         1 WJB       0.081700
     41 H9          -5.4220    -1.1930    -1.0590 hc         1 WJB       0.084200
     42 H10         -5.3360     0.1610    -2.1530 hc         1 WJB       0.084200
     43 H11         -2.6940    -0.5580    -2.1900 hc         1 WJB       0.082700
     44 H12         -5.5930    -2.8020    -3.7490 h1         1 WJB       0.044200
     45 H13         -4.2330    -3.2790    -4.7660 h1         1 WJB       0.044200
     46 H14         -4.6600    -0.6130    -4.1610 hc         1 WJB       0.058200
     47 H15         -3.0450    -1.2780    -4.3650 hc         1 WJB       0.058200
     48 H16         -4.8610     1.6650     1.2940 h2         1 WJB       0.067700
     49 H17          3.2960     1.3810    -1.2280 hc         1 WJB       0.054533
     50 H18          4.9820     1.4840    -1.6950 hc         1 WJB       0.054533
     51 H19          4.0290     0.0580    -2.1370 hc         1 WJB       0.054533
     52 H20          9.8890     2.1390     0.3040 ha         1 WJB       0.118500
     53 H22          5.1430     0.7380     1.9940 hc         1 WJB       0.054533
     54 H23          5.6730     1.8670     0.7380 hc         1 WJB       0.054533
     55 H24          3.9850     1.8020     1.1990 hc         1 WJB       0.054533
     56 H25          3.3530    -1.6180    -0.3370 h1         1 WJB       0.069200
     57 H26          3.8420    -1.3580     1.3490 h1         1 WJB       0.069200
     58 H27         -2.1980     0.3350     5.5610 hc         1 WJB       0.032700
     59 H28         -3.3420    -0.9900     5.7670 hc         1 WJB       0.032700
     60 H29         -1.6110    -1.3210     5.7140 hc         1 WJB       0.032700
     61 H30          8.1030     0.6540     1.1210 ha         1 WJB       0.138000
     62 H31         10.1500     2.5500    -2.1190 ha         1 WJB       0.114000
     63 H32          8.6240     1.4650    -3.7340 ha         1 WJB       0.118500
     64 H33          6.8380    -0.0290    -2.9340 ha         1 WJB       0.138000
     65 H34          0.3370     1.0180     1.1230 hn         1 WJB       0.339500
     66 H35         -3.0830    -1.2080     0.2670 hn         1 WJB       0.342500
     67 H36         -3.9500    -4.3870    -2.5120 hn         1 WJB       0.319500
     68 O1          -6.1060     2.7440    -1.0920 o          1 WJB      -0.683200
     69 O2          -7.5380     0.7510    -0.8060 o          1 WJB      -0.683200
     70 O3          -7.4190     2.4470     0.9720 o          1 WJB      -0.683200
     71 O23         -5.8660    -0.1470     1.3430 oh         1 WJB      -0.612000
     72 O34          6.5160    -1.3770     1.0270 o          1 WJB      -0.518500
     73 O35          5.8240    -1.8270    -1.3520 o          1 WJB      -0.518500
     74 O24         -2.0830     1.6650     1.0710 o          1 WJB      -0.623100
     75 H37         -5.1710    -0.5230     1.8940 ho         1 WJB       0.412000
@<TRIPOS>BOND
     1     1    15 1   
     2     1    19 1   
     3     1    20 1   
     4     1    32 1   
     5     2    26 1   
     6     2    29 1   
     7     2    31 2   
     8     3     4 1   
     9     3     7 1   
    10     3    26 1   
    11     3    33 1   
    12     4     5 1   
    13     4    34 1   
    14     4    35 1   
    15     5     6 1   
    16     5    21 1   
    17     5    36 1   
    18     6    37 1   
    19     6    38 1   
    20     6    39 1   
    21     7    27 1   
    22     7    74 2   
    23     8     9 1   
    24     8    14 1   
    25     8    27 1   
    26     8    40 1   
    27     9    10 1   
    28     9    41 1   
    29     9    42 1   
    30    10    11 1   
    31    10    13 1   
    32    10    43 1   
    33    11    28 1   
    34    11    30 2   
    35    12    13 1   
    36    12    28 1   
    37    12    44 1   
    38    12    45 1   
    39    13    46 1   
    40    13    47 1   
    41    14    18 1   
    42    14    48 1   
    43    14    71 1   
    44    15    49 1   
    45    15    50 1   
    46    15    51 1   
    47    16    22 ar  
    48    16    25 ar  
    49    16    32 1   
    50    17    22 ar  
    51    17    23 ar  
    52    17    52 1   
    53    18    68 1   
    54    18    69 1   
    55    18    70 1   
    56    19    53 1   
    57    19    54 1   
    58    19    55 1   
    59    20    29 1   
    60    20    56 1   
    61    20    57 1   
    62    21    58 1   
    63    21    59 1   
    64    21    60 1   
    65    22    61 1   
    66    23    24 ar  
    67    23    62 1   
    68    24    25 ar  
    69    24    63 1   
    70    25    64 1   
    71    26    65 1   
    72    27    66 1   
    73    28    67 1   
    74    32    72 2   
    75    32    73 2   
    76    71    75 1   
@<TRIPOS>SUBSTRUCTURE
     1 WJB         1 TEMP              0 ****  ****    0 ROOT
