@<TRIPOS>MOLECULE
WPW
   40    41     1     0     0
SMALL
abcg2


@<TRIPOS>ATOM
      1 C4          31.5750    17.2660    15.5880 c6         1 WPW      -0.083700
      2 C14         30.9110    17.7690    16.8670 c6         1 WPW      -0.071400
      3 C5          30.5020    16.9160    14.5650 c6         1 WPW      -0.071400
      4 C6          29.4960    15.9280    15.1330 c6         1 WPW       0.195800
      5 C11         28.1190    11.9760    17.4250 ca         1 WPW       0.162000
      6 C7          27.7980    14.3210    17.6100 ca         1 WPW      -0.277500
      7 C8          28.0980    14.2710    18.9640 ca         1 WPW      -0.026000
      8 C9          28.4150    13.0550    19.5460 ca         1 WPW      -0.100000
      9 C10         28.4250    11.9020    18.7760 ca         1 WPW       0.110000
     10 C12         27.8020    13.1750    16.8260 ca         1 WPW      -0.056000
     11 C13         29.8840    16.7820    17.3920 c6         1 WPW       0.195800
     12 N2          28.8980    16.4940    16.3460 n3         1 WPW      -0.719500
     13 C3          32.5620    18.3100    15.0740 c3         1 WPW       0.101000
     14 C1          33.0130    18.4980    12.6590 c          1 WPW       0.598100
     15 C2          33.6970    17.7700    11.5110 c3         1 WPW       0.018600
     16 O1          32.3180    19.4800    12.4790 o          1 WPW      -0.564100
     17 S1          27.4480    15.8870    16.8430 sy         1 WPW       1.155600
     18 CL2         28.8070    10.3800    19.4710 cl         1 WPW      -0.152000
     19 H1          32.1290    16.3500    15.8310 hc         1 WPW       0.041700
     20 H2          31.6580    17.9330    17.6470 hc         1 WPW       0.058950
     21 H3          30.4240    18.7300    16.6770 hc         1 WPW       0.058950
     22 H4          30.9460    16.4720    13.6720 hc         1 WPW       0.058950
     23 H5          29.9770    17.8240    14.2510 hc         1 WPW       0.058950
     24 H6          28.7170    15.7360    14.3990 h1         1 WPW       0.054200
     25 H7          29.9930    14.9760    15.3590 h1         1 WPW       0.054200
     26 H8          28.0810    15.1620    19.5760 ha         1 WPW       0.143000
     27 H9          28.6490    13.0000    20.6000 ha         1 WPW       0.138000
     28 H10         27.5560    13.1980    15.7720 ha         1 WPW       0.156000
     29 H11         29.3830    17.2030    18.2620 h1         1 WPW       0.054200
     30 H12         30.3850    15.8570    17.7060 h1         1 WPW       0.054200
     31 H13         33.8410    17.1200    13.8990 hn         1 WPW       0.310500
     32 H14         33.3200    18.5000    15.8390 h1         1 WPW       0.063700
     33 H15         32.0450    19.2510    14.8920 h1         1 WPW       0.063700
     34 H16         34.6310    17.3000    11.8150 h1         1 WPW       0.076700
     35 H17         33.0300    16.9910    11.1390 h1         1 WPW       0.076700
     36 CL1         34.0440    18.8790    10.1660 cl         1 WPW      -0.219000
     37 N1          33.2250    17.9170    13.8500 ns         1 WPW      -0.511900
     38 F1          28.1240    10.8600    16.7010 f          1 WPW      -0.156000
     39 O2          26.6500    15.6320    15.6570 o          1 WPW      -0.526500
     40 O3          26.9410    16.7730    17.8750 o          1 WPW      -0.526500
@<TRIPOS>BOND
     1     1     2 1   
     2     1     3 1   
     3     1    13 1   
     4     1    19 1   
     5     2    11 1   
     6     2    20 1   
     7     2    21 1   
     8     3     4 1   
     9     3    22 1   
    10     3    23 1   
    11     4    12 1   
    12     4    24 1   
    13     4    25 1   
    14     5     9 ar  
    15     5    10 ar  
    16     5    38 1   
    17     6     7 ar  
    18     6    10 ar  
    19     6    17 1   
    20     7     8 ar  
    21     7    26 1   
    22     8     9 ar  
    23     8    27 1   
    24     9    18 1   
    25    10    28 1   
    26    11    12 1   
    27    11    29 1   
    28    11    30 1   
    29    12    17 1   
    30    13    32 1   
    31    13    33 1   
    32    13    37 1   
    33    14    15 1   
    34    14    16 2   
    35    14    37 1   
    36    15    34 1   
    37    15    35 1   
    38    15    36 1   
    39    17    39 2   
    40    17    40 2   
    41    31    37 1   
@<TRIPOS>SUBSTRUCTURE
     1 WPW         1 TEMP              0 ****  ****    0 ROOT
