@<TRIPOS>MOLECULE
WQE
   41    43     1     0     0
SMALL
abcg2


@<TRIPOS>ATOM
      1 C8          28.2230    14.7520    17.3680 ca         1 WQE      -0.266500
      2 C7          30.1540    17.3110    18.1120 c6         1 WQE       0.190800
      3 C12         28.7170    12.4480    17.0750 ca         1 WQE       0.180000
      4 C11         28.6040    12.2380    18.4410 ca         1 WQE      -0.031900
      5 C10         28.2870    13.3030    19.2720 ca         1 WQE      -0.078000
      6 C9          28.0940    14.5670    18.7370 ca         1 WQE      -0.036000
      7 C14         30.6320    16.3970    15.8960 c6         1 WQE       0.200800
      8 C15         32.7760    16.9070    14.6240 cy         1 WQE       0.112000
      9 C6          31.3210    18.2780    17.9870 c6         1 WQE      -0.073400
     10 C4          31.7840    17.3700    15.7130 cy         1 WQE      -0.091000
     11 C3          31.4220    18.5670    14.7990 cy         1 WQE       0.112000
     12 C2          33.3630    17.4510    11.6960 c3         1 WQE       0.036600
     13 C13         28.5300    13.6970    16.5210 ca         1 WQE      -0.066000
     14 C5          32.3930    17.7330    17.0540 c6         1 WQE      -0.061400
     15 F1          29.0100    11.4250    16.2760 f          1 WQE      -0.153000
     16 N1          32.3250    18.0210    13.8010 nj         1 WQE      -0.422800
     17 N2          29.6330    17.0050    16.7750 n3         1 WQE      -0.714500
     18 O1          31.8580    19.2830    12.0070 o          1 WQE      -0.580100
     19 O2          27.7700    16.2590    15.2780 o          1 WQE      -0.523500
     20 O3          27.2590    17.1850    17.5560 o          1 WQE      -0.523500
     21 S1          28.1030    16.3890    16.6850 sy         1 WQE       1.153600
     22 BR1         28.8770    10.5240    19.1390 br         1 WQE      -0.043100
     23 H1          29.3680    17.7590    18.7160 h1         1 WQE       0.055700
     24 H2          30.4850    16.3910    18.6120 h1         1 WQE       0.055700
     25 H3          28.1880    13.1520    20.3380 ha         1 WQE       0.139000
     26 H4          27.8400    15.3860    19.3950 ha         1 WQE       0.143000
     27 H5          30.1860    16.1710    14.9290 h1         1 WQE       0.060200
     28 H6          31.0100    15.4570    16.3220 h1         1 WQE       0.060200
     29 H7          32.5870    15.9190    14.1940 h1         1 WQE       0.065200
     30 H8          33.8260    16.9720    14.9150 h1         1 WQE       0.065200
     31 H9          31.7330    18.4530    18.9820 hc         1 WQE       0.058200
     32 H10         30.9540    19.2400    17.6210 hc         1 WQE       0.058200
     33 H11         31.7240    19.5470    15.1770 h1         1 WQE       0.065200
     34 H12         30.3800    18.6190    14.4750 h1         1 WQE       0.065200
     35 H13         33.0570    16.4070    11.7490 h1         1 WQE       0.087200
     36 H14         33.3550    17.7770    10.6590 h1         1 WQE       0.087200
     37 H16         28.6220    13.8260    15.4500 ha         1 WQE       0.156000
     38 H17         32.8510    16.8400    17.4910 hc         1 WQE       0.052700
     39 H18         33.1920    18.4660    16.9180 hc         1 WQE       0.052700
     40 CL1         35.0540    17.5490    12.2870 cl         1 WQE      -0.260000
     41 C1          32.4500    18.3430    12.5150 c          1 WQE       0.612100
@<TRIPOS>BOND
     1     1     6 ar  
     2     1    13 ar  
     3     1    21 1   
     4     2     9 1   
     5     2    17 1   
     6     2    23 1   
     7     2    24 1   
     8     3     4 ar  
     9     3    13 ar  
    10     3    15 1   
    11     4     5 ar  
    12     4    22 1   
    13     5     6 ar  
    14     5    25 1   
    15     6    26 1   
    16     7    10 1   
    17     7    17 1   
    18     7    27 1   
    19     7    28 1   
    20     8    10 1   
    21     8    16 1   
    22     8    29 1   
    23     8    30 1   
    24     9    14 1   
    25     9    31 1   
    26     9    32 1   
    27    10    11 1   
    28    10    14 1   
    29    11    16 1   
    30    11    33 1   
    31    11    34 1   
    32    12    35 1   
    33    12    36 1   
    34    12    40 1   
    35    12    41 1   
    36    13    37 1   
    37    14    38 1   
    38    14    39 1   
    39    16    41 1   
    40    17    21 1   
    41    18    41 2   
    42    19    21 2   
    43    20    21 2   
@<TRIPOS>SUBSTRUCTURE
     1 WQE         1 TEMP              0 ****  ****    0 ROOT
