@<TRIPOS>MOLECULE
WU8
   53    52     1     0     0
SMALL
abcg2


@<TRIPOS>ATOM
      1 C11          3.8200    16.1900     9.4350 c          1 WU8       0.722000
      2 C12          2.6690    17.2230     9.2190 c3         1 WU8      -0.183000
      3 C13          2.5520    17.6450     7.7600 c3         1 WU8      -0.057600
      4 C21         -1.7100    21.4900     5.8640 c3         1 WU8      -0.068400
      5 C14          2.9630    18.4600    10.0720 c3         1 WU8      -0.057600
      6 C17         -0.8900    16.9570     8.0500 c3         1 WU8       0.076600
      7 C18         -1.9140    17.9590     7.5310 c3         1 WU8      -0.056400
      8 C19         -1.2880    19.2320     6.9780 c3         1 WU8      -0.083400
      9 C20         -2.3200    20.2650     6.5450 c3         1 WU8      -0.071400
     10 C15          1.3770    16.5520     9.7060 c3         1 WU8       0.128600
     11 C22         -0.6150    22.1950     6.6620 c3         1 WU8      -0.075400
     12 C23         -1.0620    22.7030     8.0290 c3         1 WU8      -0.072400
     13 C24          0.0430    23.4090     8.8120 c3         1 WU8      -0.070400
     14 C25          1.1300    22.4730     9.3300 c3         1 WU8      -0.082400
     15 C26          2.2280    23.2010    10.0950 c3         1 WU8      -0.071400
     16 C27          3.2990    22.2710    10.6500 c3         1 WU8      -0.081400
     17 C28          4.4070    23.0140    11.3830 c3         1 WU8      -0.085100
     18 O29          3.9380    15.7370    10.5930 o          1 WU8      -0.726000
     19 S16         -0.1390    17.5580     9.5980 ss         1 WU8      -0.544000
     20 H2           1.7560    18.3830     7.6340 hc         1 WU8       0.018033
     21 H3           3.4780    18.1010     7.4100 hc         1 WU8       0.018033
     22 H4           2.3300    16.8020     7.1040 hc         1 WU8       0.018033
     23 H5          -1.2940    21.1860     4.8980 hc         1 WU8       0.028700
     24 H6          -2.5080    22.2050     5.6380 hc         1 WU8       0.028700
     25 H7           3.0260    18.2140    11.1320 hc         1 WU8       0.018033
     26 H8           3.9090    18.9220     9.7780 hc         1 WU8       0.018033
     27 H9           2.1820    19.2140     9.9460 hc         1 WU8       0.018033
     28 H10         -1.3590    15.9910     8.2390 h1         1 WU8       0.055200
     29 H11         -0.1040    16.8060     7.3080 h1         1 WU8       0.055200
     30 H12         -2.6270    18.2020     8.3260 hc         1 WU8       0.031700
     31 H13         -2.4970    17.4700     6.7450 hc         1 WU8       0.031700
     32 H14         -0.6460    18.9740     6.1290 hc         1 WU8       0.054200
     33 H15         -0.6290    19.6660     7.7340 hc         1 WU8       0.054200
     34 H16         -2.9050    20.5730     7.4170 hc         1 WU8       0.029200
     35 H17         -3.0330    19.8010     5.8560 hc         1 WU8       0.029200
     36 H18          1.1860    15.6260     9.1560 h1         1 WU8       0.068700
     37 H19          1.4880    16.2760    10.7550 h1         1 WU8       0.068700
     38 H20          0.2420    21.5240     6.7720 hc         1 WU8       0.039700
     39 H21         -0.2490    23.0440     6.0760 hc         1 WU8       0.039700
     40 H22         -1.9030    23.3890     7.8890 hc         1 WU8       0.037200
     41 H23         -1.4460    21.8750     8.6350 hc         1 WU8       0.037200
     42 H24          0.4960    24.1820     8.1810 hc         1 WU8       0.027700
     43 H25         -0.3990    23.9360     9.6630 hc         1 WU8       0.027700
     44 H26          0.6730    21.7170     9.9790 hc         1 WU8       0.051200
     45 H27          1.5820    21.9220     8.5000 hc         1 WU8       0.051200
     46 H28          2.6970    23.9390     9.4350 hc         1 WU8       0.024700
     47 H29          1.7840    23.7730    10.9180 hc         1 WU8       0.024700
     48 H30          2.8330    21.5460    11.3250 hc         1 WU8       0.051700
     49 H31          3.7290    21.6850     9.8320 hc         1 WU8       0.051700
     50 H32          5.1600    22.3280    11.7730 hc         1 WU8       0.025700
     51 H33          4.9120    23.7190    10.7210 hc         1 WU8       0.025700
     52 H34          4.0110    23.5820    12.2270 hc         1 WU8       0.025700
     53 O1           4.5320    15.9000     8.4540 o          1 WU8      -0.726000
@<TRIPOS>BOND
     1     1     2 1   
     2     1    18 1   
     3     1    53 1   
     4     2     3 1   
     5     2     5 1   
     6     2    10 1   
     7     3    20 1   
     8     3    21 1   
     9     3    22 1   
    10     4     9 1   
    11     4    11 1   
    12     4    23 1   
    13     4    24 1   
    14     5    25 1   
    15     5    26 1   
    16     5    27 1   
    17     6     7 1   
    18     6    19 1   
    19     6    28 1   
    20     6    29 1   
    21     7     8 1   
    22     7    30 1   
    23     7    31 1   
    24     8     9 1   
    25     8    32 1   
    26     8    33 1   
    27     9    34 1   
    28     9    35 1   
    29    10    19 1   
    30    10    36 1   
    31    10    37 1   
    32    11    12 1   
    33    11    38 1   
    34    11    39 1   
    35    12    13 1   
    36    12    40 1   
    37    12    41 1   
    38    13    14 1   
    39    13    42 1   
    40    13    43 1   
    41    14    15 1   
    42    14    44 1   
    43    14    45 1   
    44    15    16 1   
    45    15    46 1   
    46    15    47 1   
    47    16    17 1   
    48    16    48 1   
    49    16    49 1   
    50    17    50 1   
    51    17    51 1   
    52    17    52 1   
@<TRIPOS>SUBSTRUCTURE
     1 WU8         1 TEMP              0 ****  ****    0 ROOT
