@<TRIPOS>MOLECULE
WWO
   42    43     1     0     0
SMALL
abcg2


@<TRIPOS>ATOM
      1 F27         -5.5120    17.7870    -6.2490 f          1 WWO      -0.148000
      2 C5          -4.3860    17.9150    -5.5430 ca         1 WWO       0.197000
      3 C4          -3.6020    16.7890    -5.3930 ca         1 WWO      -0.266500
      4 S7          -4.2500    15.2680    -6.1180 sy         1 WWO       1.172600
      5 O9          -4.2840    15.5010    -7.5460 o          1 WWO      -0.511500
      6 N10         -3.2230    14.0430    -5.8590 n8         1 WWO      -1.030100
      7 O8          -5.4570    14.9770    -5.3740 o          1 WWO      -0.511500
      8 C3          -2.3910    16.9120    -4.7330 ca         1 WWO       0.138000
      9 F12         -1.5840    15.8770    -4.5210 f          1 WWO      -0.165000
     10 C2          -2.0030    18.1520    -4.2780 ca         1 WWO       0.217000
     11 F13         -0.8410    18.2390    -3.6380 f          1 WWO      -0.150000
     12 C6          -4.0710    19.1850    -5.0350 ca         1 WWO       0.388000
     13 C1          -2.8090    19.2760    -4.4050 ca         1 WWO      -0.311500
     14 S11         -2.1290    20.7990    -3.7440 sy         1 WWO       1.052500
     15 O22         -3.0650    21.8870    -4.0290 o          1 WWO      -0.505500
     16 O23         -0.7710    20.9430    -4.2480 o          1 WWO      -0.505500
     17 C21         -2.0700    20.5470    -1.9610 c3         1 WWO      -0.296400
     18 C24         -3.1980    19.6980    -1.4150 c3         1 WWO       0.189600
     19 O25         -4.4240    20.2120    -1.8630 oh         1 WWO      -0.671000
     20 N26         -4.9290    20.2330    -5.2150 nu         1 WWO      -0.913200
     21 C14         -6.3670    20.1030    -4.9520 c3         1 WWO       0.255100
     22 C15         -6.9830    21.4690    -4.8120 ca         1 WWO      -0.120300
     23 C20         -6.8510    22.1950    -3.6300 ca         1 WWO      -0.083500
     24 C19         -7.4310    23.4490    -3.5050 ca         1 WWO      -0.112500
     25 C18         -8.1460    23.9960    -4.5640 ca         1 WWO      -0.094000
     26 C17         -8.2750    23.2830    -5.7470 ca         1 WWO      -0.112500
     27 C16         -7.6930    22.0280    -5.8700 ca         1 WWO      -0.083500
     28 H1          -3.1340    13.7270    -4.9000 hn         1 WWO       0.499500
     29 H2          -2.3430    14.0820    -6.3610 hn         1 WWO       0.499500
     30 H3          -1.1070    20.0990    -1.7200 h1         1 WWO       0.118700
     31 H4          -2.0900    21.5630    -1.5570 h1         1 WWO       0.118700
     32 H5          -3.0580    18.6560    -1.7200 h1         1 WWO       0.035700
     33 H6          -3.1080    19.7180    -0.3230 h1         1 WWO       0.035700
     34 H7          -5.1220    19.5960    -1.6200 ho         1 WWO       0.460000
     35 H8          -4.5530    21.1050    -4.8690 hn         1 WWO       0.517000
     36 H9          -6.5390    19.5250    -4.0370 h1         1 WWO       0.057200
     37 H10         -6.8650    19.5820    -5.7660 h1         1 WWO       0.057200
     38 H11         -6.2980    21.7740    -2.7990 ha         1 WWO       0.118500
     39 H12         -7.3300    23.9980    -2.5780 ha         1 WWO       0.115500
     40 H13         -8.6040    24.9710    -4.4630 ha         1 WWO       0.114000
     41 H14         -8.8320    23.7010    -6.5760 ha         1 WWO       0.115500
     42 H15         -7.8010    21.4730    -6.7940 ha         1 WWO       0.118500
@<TRIPOS>BOND
     1     1     2 1   
     2     2     3 ar  
     3     2    12 ar  
     4     3     4 1   
     5     3     8 ar  
     6     4     5 2   
     7     4     6 1   
     8     4     7 2   
     9     6    28 1   
    10     6    29 1   
    11     8     9 1   
    12     8    10 ar  
    13    10    11 1   
    14    10    13 ar  
    15    12    13 ar  
    16    12    20 1   
    17    13    14 1   
    18    14    15 2   
    19    14    16 2   
    20    14    17 1   
    21    17    18 1   
    22    17    30 1   
    23    17    31 1   
    24    18    19 1   
    25    18    32 1   
    26    18    33 1   
    27    19    34 1   
    28    20    21 1   
    29    20    35 1   
    30    21    22 1   
    31    21    36 1   
    32    21    37 1   
    33    22    23 ar  
    34    22    27 ar  
    35    23    24 ar  
    36    23    38 1   
    37    24    25 ar  
    38    24    39 1   
    39    25    26 ar  
    40    25    40 1   
    41    26    27 ar  
    42    26    41 1   
    43    27    42 1   
@<TRIPOS>SUBSTRUCTURE
     1 WWO         1 TEMP              0 ****  ****    0 ROOT
