@<TRIPOS>MOLECULE
WYZ
   53    55     1     0     0
SMALL
abcg2


@<TRIPOS>ATOM
      1 N1          30.8170    -0.5120    10.1090 n8         1 WYZ      -1.045100
      2 C2          35.7140    -1.9990     5.1630 ca         1 WYZ      -0.166000
      3 C4          33.3080    -2.0470     4.9400 ca         1 WYZ      -0.204000
      4 C5          33.1850    -2.1460     6.3270 ca         1 WYZ       0.166100
      5 C6          30.8240    -2.3480     6.2370 c3         1 WYZ       0.004600
      6 C8          34.3320    -2.1670     7.1160 ca         1 WYZ      -0.144000
      7 N2          33.1000    -5.7100     7.7870 nb         1 WYZ      -0.660000
      8 O6          37.1890    -5.5110     9.2040 o          1 WYZ      -0.559500
      9 O           37.9060    -4.8240     6.8940 o          1 WYZ      -0.559500
     10 C16         35.3760    -5.1730     7.3490 ca         1 WYZ      -0.338500
     11 C20         34.3270    -5.4540     8.2140 ca         1 WYZ       0.434900
     12 C19         32.8820    -5.7040     6.4770 ca         1 WYZ       0.400900
     13 C18         33.8770    -5.4760     5.5380 ca         1 WYZ      -0.191000
     14 C17         35.1600    -5.2050     5.9810 ca         1 WYZ       0.031000
     15 N           36.8450    -3.1510     8.4510 n3         1 WYZ      -0.793500
     16 C10         35.5990    -2.3060    10.3950 ca         1 WYZ      -0.077300
     17 C15         34.7320    -3.2540    10.9250 ca         1 WYZ      -0.129500
     18 C14         33.4310    -2.9180    11.2670 ca         1 WYZ      -0.004000
     19 C13         33.0080    -1.6100    11.0950 ca         1 WYZ      -0.232500
     20 S1          31.3410    -1.1670    11.5150 sy         1 WYZ       1.139600
     21 O5          30.6410    -2.3980    11.8620 o          1 WYZ      -0.570500
     22 O4          31.3760    -0.1010    12.5080 o          1 WYZ      -0.570500
     23 C12         33.8800    -0.6290    10.6400 ca         1 WYZ      -0.004000
     24 C11         35.1720    -0.9840    10.2920 ca         1 WYZ      -0.129500
     25 C           36.8370    -2.1310     7.4040 c3         1 WYZ       0.272100
     26 C1          35.5940    -2.0990     6.5460 ca         1 WYZ      -0.097300
     27 C3          34.5740    -1.9700     4.3760 ca         1 WYZ      -0.083000
     28 C7          29.6010    -2.5120     7.1510 c          1 WYZ       0.745000
     29 O3          29.7470    -2.3850     8.3860 o          1 WYZ      -0.711500
     30 O2          28.5510    -2.7560     6.5410 o          1 WYZ      -0.711500
     31 H14         30.5100    -1.2150     9.4060 hn         1 WYZ       0.517000
     32 H13         30.1060     0.1940    10.2700 hn         1 WYZ       0.517000
     33 H2          36.6940    -1.9570     4.7040 ha         1 WYZ       0.104000
     34 H4          32.4410    -2.0370     4.2940 ha         1 WYZ       0.122000
     35 H6          30.6700    -1.4620     5.6070 h1         1 WYZ       0.021200
     36 H5          30.8770    -3.2120     5.5640 h1         1 WYZ       0.021200
     37 H8          34.2170    -2.2630     8.1870 ha         1 WYZ       0.139000
     38 H20         34.4770    -5.4790     9.2860 h4         1 WYZ       0.030100
     39 H19         31.8650    -5.8990     6.1570 h4         1 WYZ       0.031100
     40 H18         33.6480    -5.5020     4.4820 ha         1 WYZ       0.123000
     41 H17         35.9580    -5.0190     5.2770 ha         1 WYZ       0.137000
     42 H10         37.3450    -3.5470    10.4470 h1         1 WYZ       0.062200
     43 H9          37.6550    -1.9140     9.9060 h1         1 WYZ       0.062200
     44 H16         35.0700    -4.2730    11.0660 ha         1 WYZ       0.111000
     45 H15         32.7600    -3.6750    11.6480 ha         1 WYZ       0.138500
     46 H12         33.5530     0.3960    10.5260 ha         1 WYZ       0.138500
     47 H11         35.8470    -0.2250     9.9130 ha         1 WYZ       0.111000
     48 H1          36.9450    -1.1740     7.9160 h1         1 WYZ       0.057200
     49 H           37.7190    -2.2310     6.7690 h1         1 WYZ       0.057200
     50 H3          34.6660    -1.9010     3.2990 ha         1 WYZ       0.099000
     51 S           36.9670    -4.7280     8.0000 sy         1 WYZ       1.204600
     52 C9          36.9370    -2.7340     9.8520 c3         1 WYZ       0.283100
     53 O1          32.0160    -2.2300     6.9860 os         1 WYZ      -0.301100
@<TRIPOS>BOND
     1     1    20 1   
     2     1    31 1   
     3     1    32 1   
     4     2    26 ar  
     5     2    27 ar  
     6     2    33 1   
     7     3     4 ar  
     8     3    27 ar  
     9     3    34 1   
    10     4     6 ar  
    11     4    53 1   
    12     5    28 1   
    13     5    35 1   
    14     5    36 1   
    15     5    53 1   
    16     6    26 ar  
    17     6    37 1   
    18     7    11 ar  
    19     7    12 ar  
    20     8    51 2   
    21     9    51 2   
    22    10    11 ar  
    23    10    14 ar  
    24    10    51 1   
    25    11    38 1   
    26    12    13 ar  
    27    12    39 1   
    28    13    14 ar  
    29    13    40 1   
    30    14    41 1   
    31    15    25 1   
    32    15    51 1   
    33    15    52 1   
    34    16    17 ar  
    35    16    24 ar  
    36    16    52 1   
    37    17    18 ar  
    38    17    44 1   
    39    18    19 ar  
    40    18    45 1   
    41    19    20 1   
    42    19    23 ar  
    43    20    21 2   
    44    20    22 2   
    45    23    24 ar  
    46    23    46 1   
    47    24    47 1   
    48    25    26 1   
    49    25    48 1   
    50    25    49 1   
    51    27    50 1   
    52    28    29 1   
    53    28    30 1   
    54    42    52 1   
    55    43    52 1   
@<TRIPOS>SUBSTRUCTURE
     1 WYZ         1 TEMP              0 ****  ****    0 ROOT
