@<TRIPOS>MOLECULE
C2X
  173   185     1     0     0
SMALL
abcg2


@<TRIPOS>ATOM
      1 O6G        -30.6940     1.1410     6.9890 o          1 C2X      -0.601100
      2 C6G        -30.2190     2.2030     7.3760 c          1 C2X       0.668000
      3 C5G        -28.9430     2.3140     8.0470 cc         1 C2X       0.085500
      4 N7G        -28.0260     1.3560     8.3980 nc         1 C2X      -0.637000
      5 C8G        -27.0750     1.9960     9.0010 cd         1 C2X       0.445400
      6 N1G        -30.8870     3.3920     7.1980 nc         1 C2X      -0.845100
      7 C2G        -30.3800     4.5380     7.5690 cd         1 C2X       0.879100
      8 N2G        -31.0630     5.6700     7.3320 nv         1 C2X      -1.069200
      9 N3G        -29.1910     4.6910     8.2280 na         1 C2X      -0.914200
     10 C4G        -28.5000     3.5430     8.4490 cd         1 C2X       0.187000
     11 N9G        -27.3130     3.3550     9.0850 na         1 C2X      -0.176500
     12 C1E        -26.5290     4.3380     9.8100 c5         1 C2X       0.281300
     13 C2E        -26.0720     3.8380    11.1930 c5         1 C2X       0.106300
     14 O2E        -26.9550     4.1170    12.2240 os         1 C2X      -0.389000
     15 C6E        -28.0680     3.2550    12.2930 c3         1 C2X       0.143900
     16 C3E        -24.7170     4.5260    11.3870 c5         1 C2X       0.228300
     17 O3E        -24.8410     5.7600    12.0470 os         1 C2X      -0.592400
     18 PV         -24.1810     5.9570    13.5640 p5         1 C2X       1.393800
     19 O2V        -22.9380     5.1190    13.6460 o          1 C2X      -0.815500
     20 O1V        -25.2610     5.8570    14.5900 o          1 C2X      -0.815500
     21 O5C        -23.8130     7.5460    13.4730 os         1 C2X      -0.614400
     22 C5C        -22.5640     8.0220    12.9970 c3         1 C2X       0.233600
     23 C4C        -22.4600     7.9830    11.4860 c5         1 C2X      -0.132700
     24 C7C        -23.5570     8.7920    10.7770 c5         1 C2X       0.174800
     25 N1C        -22.8460     9.6930     9.8810 n3         1 C2X      -0.746600
     26 C6C        -23.6080    10.2300     8.7730 c3         1 C2X       0.265000
     27 C9I        -24.1760     9.2060     7.8360 cc         1 C2X      -0.287000
     28 C8I        -23.5620     8.6280     6.7500 cd         1 C2X      -0.127100
     29 N7I        -24.3600     7.6760     6.2020 na         1 C2X      -0.197700
     30 C5I        -25.5160     7.6060     6.9250 ca         1 C2X      -0.213200
     31 C6I        -26.6610     6.8000     6.8400 ca         1 C2X       0.418900
     32 N6I        -26.8330     5.8390     5.9170 nv         1 C2X      -1.066900
     33 N1I        -27.6110     6.9900     7.7600 nb         1 C2X      -0.362000
     34 C2I        -27.4440     7.9370     8.6960 ca         1 C2X       0.135900
     35 N3I        -26.4250     8.7370     8.8510 nb         1 C2X      -0.139000
     36 C4I        -25.4340     8.5530     7.9510 ca         1 C2X       0.137800
     37 C2C        -21.5830     9.0700     9.5630 c5         1 C2X       0.140800
     38 C3C        -21.1510     8.5560    10.9280 c5         1 C2X       0.258300
     39 O3C        -20.1300     7.5900    10.8250 os         1 C2X      -0.597400
     40 PY         -18.7900     7.6110    11.7840 p5         1 C2X       1.413800
     41 O1Y        -17.5970     7.9200    10.9400 o          1 C2X      -0.833000
     42 O2Y        -19.0910     8.3730    13.0390 o          1 C2X      -0.833000
     43 O5D        -18.6910     6.0020    12.0950 os         1 C2X      -0.594400
     44 C5D        -19.5730     5.4000    13.0160 c3         1 C2X       0.205600
     45 C4D        -19.4370     3.8970    12.9370 c5         1 C2X       0.157300
     46 O4D        -19.8660     3.4320    11.6600 os         1 C2X      -0.432000
     47 C1D        -18.9160     2.6000    11.0640 c5         1 C2X       0.266300
     48 N9N        -18.2470     3.2870     9.9700 na         1 C2X      -0.196500
     49 C4N        -18.7730     3.4730     8.7320 cc         1 C2X       0.227000
     50 N3N        -19.9070     2.9660     8.1970 na         1 C2X      -0.913200
     51 C2N        -20.1510     3.3140     6.9030 cc         1 C2X       0.880100
     52 N2N        -21.2930     2.8320     6.3760 nv         1 C2X      -1.062200
     53 N1N        -19.3830     4.0900     6.1810 nd         1 C2X      -0.878100
     54 C6N        -18.2210     4.6370     6.6740 c          1 C2X       0.676000
     55 O6N        -17.5120     5.3580     5.9790 o          1 C2X      -0.643100
     56 C5N        -17.9180     4.2900     8.0440 cd         1 C2X       0.082500
     57 N7N        -16.8560     4.6240     8.8500 nd         1 C2X      -0.624000
     58 C8N        -17.0830     4.0270     9.9770 cc         1 C2X       0.440400
     59 C2D        -17.9720     2.1550    12.1890 c5         1 C2X       0.095300
     60 O2D        -18.5290     1.0670    12.8660 os         1 C2X      -0.411000
     61 C6D        -18.2270    -0.1850    12.2960 c3         1 C2X       0.145900
     62 C3D        -18.0090     3.3730    13.1200 c5         1 C2X       0.220300
     63 O3D        -17.7690     3.0990    14.4660 os         1 C2X      -0.579400
     64 O4E        -25.3760     4.6570     9.0960 os         1 C2X      -0.461000
     65 C4E        -24.2290     4.7200     9.9440 c5         1 C2X       0.138300
     66 C5E        -23.2110     3.6930     9.4990 c3         1 C2X       0.200600
     67 O5E        -23.8010     2.4090     9.5410 os         1 C2X      -0.640400
     68 PU         -22.9300     1.0520     9.8120 p5         1 C2X       1.450800
     69 O1U        -23.8400    -0.0870     9.5000 o          1 C2X      -0.839000
     70 O2U        -21.5820     1.1750     9.1370 o          1 C2X      -0.839000
     71 O3U        -22.6080     1.1420    11.4060 os         1 C2X      -0.587400
     72 C1L        -23.6420     0.8590    12.3440 c3         1 C2X       0.230600
     73 C2L        -23.1510     1.1380    13.7470 c3         1 C2X      -0.085400
     74 C3L        -22.0080     0.2350    14.1930 c3         1 C2X      -0.063400
     75 C4L        -21.6980     0.3810    15.6770 c3         1 C2X      -0.075400
     76 C5L        -20.6280    -0.5940    16.1550 c3         1 C2X      -0.082400
     77 C6L        -20.3950    -0.4620    17.6460 c3         1 C2X       0.127600
     78 O6L        -19.3540    -1.3640    18.0220 os         1 C2X      -0.278300
     79 N6L        -19.2640    -1.6280    19.3680 n7         1 C2X      -0.282400
     80 O3X        -19.0030    -0.4310    20.0540 os         1 C2X      -0.434700
     81 PX         -17.5500    -0.4070    20.8800 p5         1 C2X       1.426800
     82 O2X        -17.5430     0.9700    21.4590 o          1 C2X      -0.829500
     83 O1X        -17.3870    -1.6420    21.6970 o          1 C2X      -0.829500
     84 O3B        -16.4560    -0.5450    19.6650 os         1 C2X      -0.602400
     85 C3B        -16.2160     0.5160    18.7670 c5         1 C2X       0.193300
     86 C4B        -16.2620    -0.0180    17.3220 c5         1 C2X       0.136300
     87 C5B        -16.9980     0.8630    16.3430 c3         1 C2X       0.223600
     88 O5B        -16.5210     2.1900    16.3820 os         1 C2X      -0.583400
     89 PZ         -16.1980     2.9940    14.9960 p5         1 C2X       1.414800
     90 O2Z        -15.4210     2.1390    14.0430 o          1 C2X      -0.830500
     91 O1Z        -15.7290     4.3540    15.3950 o          1 C2X      -0.830500
     92 C2B        -14.7570     0.9800    18.8840 c5         1 C2X       0.106300
     93 O2B        -14.1970     0.9880    20.1530 os         1 C2X      -0.457000
     94 C6B        -14.4000     2.1910    20.8610 c3         1 C2X       0.145900
     95 C1B        -14.0660    -0.0630    18.0110 c5         1 C2X       0.317300
     96 O4B        -14.9060    -0.2020    16.9030 os         1 C2X      -0.446000
     97 N9A        -12.7360     0.2690    17.5840 na         1 C2X      -0.255300
     98 C4A        -12.2730     1.4080    16.9800 ca         1 C2X       0.154500
     99 C5A        -10.9230     1.1770    16.7640 ca         1 C2X      -0.119600
    100 N7A        -10.5570    -0.0660    17.2140 nc         1 C2X      -0.618100
    101 C8A        -11.6560    -0.5680    17.6860 cd         1 C2X       0.410700
    102 N3A        -12.9380     2.5140    16.6590 nb         1 C2X      -0.123000
    103 C2A        -12.1610     3.4110    16.0800 ca         1 C2X       0.185900
    104 N1A        -10.8620     3.3280    15.8110 nb         1 C2X      -0.315000
    105 C6A        -10.2010     2.2140    16.1440 ca         1 C2X       0.417900
    106 N6A         -8.8950     2.1280    15.8850 nv         1 C2X      -1.101900
    107 H8G        -26.1740     1.5470     9.3880 h5         1 C2X       0.114100
    108 HN2G       -31.8430     5.6230     6.7000 hn         1 C2X       0.487000
    109 HN2A       -30.6450     6.5730     7.4760 hn         1 C2X       0.487000
    110 HN3G       -28.7000     5.6090     8.1830 hn         1 C2X       0.560000
    111 H1E        -27.1690     5.2200     9.9360 h2         1 C2X       0.066700
    112 H2E        -25.8800     2.7600    11.1310 h1         1 C2X       0.058700
    113 H6E        -28.5660     3.4400    13.2430 h1         1 C2X       0.018033
    114 H6EA       -28.7920     3.4330    11.4910 h1         1 C2X       0.018033
    115 H6EB       -27.7700     2.2010    12.2580 h1         1 C2X       0.018033
    116 H3E        -24.0350     3.8690    11.9320 h1         1 C2X       0.104700
    117 H5C        -22.4890     9.0610    13.3310 h1         1 C2X       0.049700
    118 H5CA       -21.7360     7.4770    13.4550 h1         1 C2X       0.049700
    119 H4C        -22.5090     6.9430    11.1510 hc         1 C2X       0.075700
    120 H7C        -24.2310     8.1060    10.2510 h1         1 C2X       0.040700
    121 H7CA       -24.1770     9.3670    11.4730 h1         1 C2X       0.040700
    122 H6C        -24.4260    10.8290     9.1830 h1         1 C2X       0.034200
    123 H6CA       -22.9620    10.9210     8.2250 h1         1 C2X       0.034200
    124 H8I        -22.5950     8.8400     6.3200 h4         1 C2X       0.225000
    125 HN6I       -27.7490     5.4410     5.7960 hn         1 C2X       0.478500
    126 HN6A       -26.2290     5.7850     5.1160 hn         1 C2X       0.478500
    127 H2I        -28.2630     8.0320     9.4010 h5         1 C2X       0.034100
    128 H2C        -21.6660     8.2240     8.8590 h1         1 C2X       0.033200
    129 H2CA       -20.8850     9.7940     9.1340 h1         1 C2X       0.033200
    130 H3C        -20.8270     9.4080    11.5360 h1         1 C2X       0.045700
    131 H5D        -19.3520     5.7100    14.0430 h1         1 C2X       0.051200
    132 H5DA       -20.6170     5.6620    12.8200 h1         1 C2X       0.051200
    133 H4D        -20.0850     3.4630    13.7090 h1         1 C2X       0.087700
    134 H1D        -19.4260     1.7420    10.6220 h2         1 C2X       0.095700
    135 HN3N       -20.5560     2.3000     8.6880 hn         1 C2X       0.610000
    136 HN2N       -21.4160     2.9170     5.3820 hn         1 C2X       0.485500
    137 HN2B       -21.7780     2.0770     6.8350 hn         1 C2X       0.485500
    138 H8N        -16.4340     4.0650    10.8370 h5         1 C2X       0.074100
    139 H2D        -16.9640     1.9240    11.8280 h1         1 C2X       0.073700
    140 H6D        -18.6270    -0.2980    11.2820 h1         1 C2X       0.016367
    141 H6DA       -17.1470    -0.3570    12.2590 h1         1 C2X       0.016367
    142 H6DB       -18.6820    -0.9470    12.9260 h1         1 C2X       0.016367
    143 H3D        -17.3020     4.1190    12.7390 h1         1 C2X       0.070700
    144 H4E        -23.7700     5.7080     9.8400 h1         1 C2X       0.090700
    145 H5E        -22.8810     3.9190     8.4800 h1         1 C2X       0.058200
    146 H5EA       -22.3350     3.7750    10.1520 h1         1 C2X       0.058200
    147 H1L        -24.5270     1.4700    12.1420 h1         1 C2X       0.002200
    148 H1LA       -23.9480    -0.1890    12.2620 h1         1 C2X       0.002200
    149 H2L        -22.8710     2.1920    13.8440 hc         1 C2X       0.056200
    150 H2LA       -24.0060     0.9900    14.4130 hc         1 C2X       0.056200
    151 H3L        -22.2750    -0.8070    13.9840 hc         1 C2X       0.042200
    152 H3LA       -21.1080     0.4460    13.6110 hc         1 C2X       0.042200
    153 H4L        -21.3790     1.4080    15.8850 hc         1 C2X       0.039700
    154 H4LA       -22.6160     0.2240    16.2530 hc         1 C2X       0.039700
    155 H5L        -20.9340    -1.6180    15.9210 hc         1 C2X       0.045200
    156 H5LA       -19.6970    -0.4090    15.6100 hc         1 C2X       0.045200
    157 H6L        -20.1270     0.5690    17.8970 h1         1 C2X       0.034700
    158 H6LA       -21.3170    -0.7090    18.1890 h1         1 C2X       0.034700
    159 HN6L       -20.2090    -1.8600    19.6780 hn         1 C2X       0.356000
    160 H3B        -16.9210     1.3370    18.9170 h1         1 C2X       0.095700
    161 H4B        -16.7760    -0.9840    17.3250 h1         1 C2X       0.066700
    162 H5B        -16.9220     0.4250    15.3430 h1         1 C2X       0.040200
    163 H5BA       -18.0560     0.8510    16.6190 h1         1 C2X       0.040200
    164 H2B        -14.6750     1.9600    18.3980 h1         1 C2X       0.106700
    165 H6BB       -14.0030     3.0520    20.3120 h1         1 C2X       0.031033
    166 H6BA       -15.4550     2.3660    21.0790 h1         1 C2X       0.031033
    167 H1B        -13.9710    -1.0040    18.5710 h2         1 C2X       0.059700
    168 H8A        -11.7550    -1.5480    18.1310 h5         1 C2X       0.048800
    169 H2A        -12.6460     4.3340    15.7800 h5         1 C2X       0.085100
    170 HN6B        -8.3770     1.2930    16.0960 hn         1 C2X       0.481500
    171 HN6C        -8.4210     2.8770    15.4110 hn         1 C2X       0.481500
    172 HN7I       -24.1120     7.1180     5.4010 hn         1 C2X       0.348000
    173 H6BC       -13.8620     2.1070    21.8050 h1         1 C2X       0.031033
@<TRIPOS>BOND
     1     1     2 2   
     2     2     3 1   
     3     2     6 1   
     4     3     4 1   
     5     3    10 2   
     6     4     5 2   
     7     5    11 1   
     8     5   107 1   
     9     6     7 2   
    10     7     8 1   
    11     7     9 1   
    12     8   108 1   
    13     8   109 1   
    14     9    10 1   
    15     9   110 1   
    16    10    11 1   
    17    11    12 1   
    18    12    13 1   
    19    12    64 1   
    20    12   111 1   
    21    13    14 1   
    22    13    16 1   
    23    13   112 1   
    24    14    15 1   
    25    15   113 1   
    26    15   114 1   
    27    15   115 1   
    28    16    17 1   
    29    16    65 1   
    30    16   116 1   
    31    17    18 1   
    32    18    19 1   
    33    18    20 1   
    34    18    21 1   
    35    21    22 1   
    36    22    23 1   
    37    22   117 1   
    38    22   118 1   
    39    23    24 1   
    40    23    38 1   
    41    23   119 1   
    42    24    25 1   
    43    24   120 1   
    44    24   121 1   
    45    25    26 1   
    46    25    37 1   
    47    26    27 1   
    48    26   122 1   
    49    26   123 1   
    50    27    28 2   
    51    27    36 1   
    52    28    29 1   
    53    28   124 1   
    54    29    30 1   
    55    29   172 1   
    56    30    31 ar  
    57    30    36 ar  
    58    31    32 1   
    59    31    33 ar  
    60    32   125 1   
    61    32   126 1   
    62    33    34 ar  
    63    34    35 ar  
    64    34   127 1   
    65    35    36 ar  
    66    37    38 1   
    67    37   128 1   
    68    37   129 1   
    69    38    39 1   
    70    38   130 1   
    71    39    40 1   
    72    40    41 1   
    73    40    42 1   
    74    40    43 1   
    75    43    44 1   
    76    44    45 1   
    77    44   131 1   
    78    44   132 1   
    79    45    46 1   
    80    45    62 1   
    81    45   133 1   
    82    46    47 1   
    83    47    48 1   
    84    47    59 1   
    85    47   134 1   
    86    48    49 1   
    87    48    58 1   
    88    49    50 1   
    89    49    56 2   
    90    50    51 1   
    91    50   135 1   
    92    51    52 1   
    93    51    53 2   
    94    52   136 1   
    95    52   137 1   
    96    53    54 1   
    97    54    55 2   
    98    54    56 1   
    99    56    57 1   
   100    57    58 2   
   101    58   138 1   
   102    59    60 1   
   103    59    62 1   
   104    59   139 1   
   105    60    61 1   
   106    61   140 1   
   107    61   141 1   
   108    61   142 1   
   109    62    63 1   
   110    62   143 1   
   111    63    89 1   
   112    64    65 1   
   113    65    66 1   
   114    65   144 1   
   115    66    67 1   
   116    66   145 1   
   117    66   146 1   
   118    67    68 1   
   119    68    69 1   
   120    68    70 1   
   121    68    71 1   
   122    71    72 1   
   123    72    73 1   
   124    72   147 1   
   125    72   148 1   
   126    73    74 1   
   127    73   149 1   
   128    73   150 1   
   129    74    75 1   
   130    74   151 1   
   131    74   152 1   
   132    75    76 1   
   133    75   153 1   
   134    75   154 1   
   135    76    77 1   
   136    76   155 1   
   137    76   156 1   
   138    77    78 1   
   139    77   157 1   
   140    77   158 1   
   141    78    79 1   
   142    79    80 1   
   143    79   159 1   
   144    80    81 1   
   145    81    82 1   
   146    81    83 1   
   147    81    84 1   
   148    84    85 1   
   149    85    86 1   
   150    85    92 1   
   151    85   160 1   
   152    86    87 1   
   153    86    96 1   
   154    86   161 1   
   155    87    88 1   
   156    87   162 1   
   157    87   163 1   
   158    88    89 1   
   159    89    90 1   
   160    89    91 1   
   161    92    93 1   
   162    92    95 1   
   163    92   164 1   
   164    93    94 1   
   165    94   165 1   
   166    94   166 1   
   167    94   173 1   
   168    95    96 1   
   169    95    97 1   
   170    95   167 1   
   171    97    98 1   
   172    97   101 1   
   173    98    99 ar  
   174    98   102 ar  
   175    99   100 1   
   176    99   105 ar  
   177   100   101 2   
   178   101   168 1   
   179   102   103 ar  
   180   103   104 ar  
   181   103   169 1   
   182   104   105 ar  
   183   105   106 1   
   184   106   170 1   
   185   106   171 1   
@<TRIPOS>SUBSTRUCTURE
     1 C2X         1 TEMP              0 ****  ****    0 ROOT
