@<TRIPOS>MOLECULE
C34
   35    36     1     0     0
SMALL
abcg2


@<TRIPOS>ATOM
      1 P           12.5570     7.6910    32.2470 p5         1 C34       1.264900
      2 OP1         12.6280     6.3050    32.8790 o          1 C34      -0.917833
      3 OP2         11.1870     8.0410    31.6670 o          1 C34      -0.917833
      4 OP3         13.7530     8.0810    31.3870 o          1 C34      -0.917833
      5 O5          12.7700     8.7800    33.5710 os         1 C34      -0.604400
      6 C5          11.7120     9.0990    34.4130 c3         1 C34       0.250600
      7 C4          11.3940    10.5850    34.4030 c5         1 C34       0.146300
      8 O4          12.5080    11.3440    34.8780 os         1 C34      -0.477000
      9 C1          12.9670    12.2360    33.8930 c5         1 C34       0.327700
     10 N1          14.4220    12.2780    33.9310 n          1 C34      -0.302000
     11 C6          15.1190    11.1260    33.8020 cc         1 C34       0.072600
     12 C2          15.0900    13.5030    34.1220 c          1 C34       0.717400
     13 O2          14.4420    14.5360    34.2360 o          1 C34      -0.604000
     14 N3          16.4370    13.4860    34.1670 nc         1 C34      -0.826100
     15 C9          17.1170    12.3610    34.0330 cd         1 C34       0.778500
     16 N4          18.4480    12.4420    34.0900 nu         1 C34      -0.909400
     17 C7          19.3570    11.3310    33.9530 c3         1 C34       0.233100
     18 C8          16.4690    11.1050    33.8380 cd         1 C34      -0.520600
     19 C10         12.3870    11.7390    32.5750 c5         1 C34      -0.154400
     20 C3          11.0560    11.1550    33.0230 c5         1 C34       0.126300
     21 O3          10.0770    12.1630    33.2090 oh         1 C34      -0.753000
     22 H5          11.9420     8.8090    35.4490 h1         1 C34       0.002200
     23 H5'         10.7840     8.5760    34.1470 h1         1 C34       0.002200
     24 H4          10.5470    10.7470    35.0810 h1         1 C34       0.034700
     25 H1          12.6310    13.2510    34.1060 h2         1 C34       0.075700
     26 H6          14.5380    10.2200    33.6700 h4         1 C34       0.300000
     27 H9          18.8330    13.3640    34.2180 hn         1 C34       0.487000
     28 H7C1        20.3700    11.7040    34.0690 h1         1 C34       0.031033
     29 H7C2        19.2830    10.8580    32.9710 h1         1 C34       0.031033
     30 H7C3        19.1890    10.5700    34.7160 h1         1 C34       0.031033
     31 H8          17.0050    10.1750    33.7300 ha         1 C34       0.209000
     32 H2          12.2810    12.5420    31.8440 hc         1 C34       0.081200
     33 H2'         13.0080    10.9600    32.1310 hc         1 C34       0.081200
     34 H3          10.7080    10.3690    32.3460 h1         1 C34       0.139700
     35 HO3          9.9160    12.5810    32.3570 ho         1 C34       0.482000
@<TRIPOS>BOND
     1     1     2 1   
     2     1     3 1   
     3     1     4 1   
     4     1     5 1   
     5     5     6 1   
     6     6     7 1   
     7     6    22 1   
     8     6    23 1   
     9     7     8 1   
    10     7    20 1   
    11     7    24 1   
    12     8     9 1   
    13     9    10 1   
    14     9    19 1   
    15     9    25 1   
    16    10    11 1   
    17    10    12 1   
    18    11    18 2   
    19    11    26 1   
    20    12    13 2   
    21    12    14 1   
    22    14    15 2   
    23    15    16 1   
    24    15    18 1   
    25    16    17 1   
    26    16    27 1   
    27    17    28 1   
    28    17    29 1   
    29    17    30 1   
    30    18    31 1   
    31    19    20 1   
    32    19    32 1   
    33    19    33 1   
    34    20    21 1   
    35    20    34 1   
    36    21    35 1   
@<TRIPOS>SUBSTRUCTURE
     1 C34         1 TEMP              0 ****  ****    0 ROOT
