@<TRIPOS>MOLECULE
C37
   32    33     1     0     0
SMALL
abcg2


@<TRIPOS>ATOM
      1 O3P        -28.8220    49.3610   103.1590 o          1 C37      -0.915167
      2 P          -28.4250    48.7810   104.5090 p5         1 C37       1.258900
      3 O1P        -29.0230    49.4820   105.7240 o          1 C37      -0.915167
      4 O2P        -28.4450    47.2520   104.5970 o          1 C37      -0.915167
      5 O5         -26.7510    49.1780   104.5510 os         1 C37      -0.592400
      6 C5         -26.0030    48.8050   105.6610 c3         1 C37       0.255600
      7 C4         -24.6510    48.2440   105.2600 c5         1 C37       0.149300
      8 O4         -24.7920    46.9680   104.6300 os         1 C37      -0.435000
      9 C3         -23.8580    49.0930   104.2740 c5         1 C37       0.125300
     10 O3         -23.1190    50.0600   104.9770 oh         1 C37      -0.719000
     11 C2         -23.0250    48.0470   103.5460 c5         1 C37      -0.155400
     12 C1         -23.9440    46.8290   103.5370 c5         1 C37       0.350700
     13 N1         -24.7470    46.7190   102.2920 n          1 C37      -0.322000
     14 C9         -24.0540    46.3990   101.1200 c          1 C37       0.705400
     15 O2         -22.8410    46.2260   101.1730 o          1 C37      -0.627000
     16 N3         -24.7510    46.2970    99.9670 nc         1 C37      -0.819100
     17 C8         -26.0620    46.4060    99.9460 cd         1 C37       0.758500
     18 N4         -26.7100    46.2960    98.7870 nv         1 C37      -1.051200
     19 C7         -26.7770    46.6260   101.1530 cd         1 C37      -0.155100
     20 C6         -26.1010    46.7850   102.3050 cc         1 C37       0.048600
     21 F          -28.1230    46.6590   101.1130 f          1 C37      -0.137500
     22 H5'1       -26.5080    48.0580   106.2880 h1         1 C37       0.009200
     23 H5'2       -25.7990    49.6620   106.3220 h1         1 C37       0.009200
     24 H4         -24.0530    48.1150   106.1740 h1         1 C37       0.018700
     25 H3         -24.5490    49.5650   103.5660 h1         1 C37       0.099700
     26 HA         -22.8000    50.7120   104.3470 ho         1 C37       0.485000
     27 H2'1       -22.1360    47.8100   104.1360 hc         1 C37       0.053700
     28 H2'2       -22.6980    48.3570   102.5570 hc         1 C37       0.053700
     29 H1         -23.3860    45.8940   103.6220 h2         1 C37       0.064700
     30 H4N1       -27.7080    46.3970    98.7170 hn         1 C37       0.490500
     31 H4N2       -26.1900    46.1510    97.9390 hn         1 C37       0.490500
     32 H6         -26.6230    46.9490   103.2430 h4         1 C37       0.331000
@<TRIPOS>BOND
     1     1     2 1   
     2     2     3 1   
     3     2     4 1   
     4     2     5 1   
     5     5     6 1   
     6     6     7 1   
     7     6    22 1   
     8     6    23 1   
     9     7     8 1   
    10     7     9 1   
    11     7    24 1   
    12     8    12 1   
    13     9    10 1   
    14     9    11 1   
    15     9    25 1   
    16    10    26 1   
    17    11    12 1   
    18    11    27 1   
    19    11    28 1   
    20    12    13 1   
    21    12    29 1   
    22    13    14 1   
    23    13    20 1   
    24    14    15 2   
    25    14    16 1   
    26    16    17 2   
    27    17    18 1   
    28    17    19 1   
    29    18    30 1   
    30    18    31 1   
    31    19    20 2   
    32    19    21 1   
    33    20    32 1   
@<TRIPOS>SUBSTRUCTURE
     1 C37         1 TEMP              0 ****  ****    0 ROOT
