@<TRIPOS>MOLECULE
C42
   33    34     1     0     0
SMALL
abcg2


@<TRIPOS>ATOM
      1 N1           9.2560    17.7950    58.3690 n          1 C42      -0.328000
      2 C2          10.0700    16.7170    58.7390 c          1 C42       0.707400
      3 N3           9.5580    15.4710    58.6610 nc         1 C42      -0.829100
      4 C4           8.3310    15.2710    58.2140 cd         1 C42       0.771500
      5 C5           7.4920    16.3440    57.8000 cd         1 C42      -0.491600
      6 C6           8.0060    17.5890    57.9050 cc         1 C42       0.072600
      7 O2          11.2140    16.9430    59.1190 o          1 C42      -0.633000
      8 N4           7.8810    14.0140    58.1560 nv         1 C42      -1.059200
      9 C1           9.8290    19.1550    58.4690 c5         1 C42       0.334700
     10 C7          10.6980    19.5030    57.2650 c5         1 C42      -0.117400
     11 C3           9.7170    20.2040    56.3340 c5         1 C42       0.120500
     12 C8           8.8240    20.9370    57.3420 c5         1 C42       0.111300
     13 O4           8.7990    20.0960    58.5010 os         1 C42      -0.425000
     14 C9           7.4170    21.2590    56.8740 c3         1 C42       0.255600
     15 O5           6.7720    20.1320    56.3760 os         1 C42      -0.592400
     16 P            5.1120    19.8540    56.7670 p5         1 C42       1.258900
     17 O1P          4.9460    18.4340    56.2370 o          1 C42      -0.914833
     18 O2P          5.0490    19.9910    58.2850 o          1 C42      -0.914833
     19 O3P          4.3560    20.9340    56.0020 o          1 C42      -0.914833
     20 N           10.3690    21.0180    55.3330 n8         1 C42      -1.002200
     21 H5           6.4910    16.1970    57.4230 ha         1 C42       0.248000
     22 H6           7.4370    18.4580    57.6140 h4         1 C42       0.304000
     23 H4N1         8.4680    13.2520    58.4460 hn         1 C42       0.482500
     24 H4N2         6.9560    13.8030    57.8240 hn         1 C42       0.482500
     25 H1          10.3850    19.1830    59.4060 h2         1 C42       0.076700
     26 H2'1        11.1820    18.6350    56.8220 hc         1 C42       0.050200
     27 H2'2        11.4820    20.2010    57.5740 hc         1 C42       0.050200
     28 H3           9.1180    19.4550    55.8090 h1         1 C42       0.117700
     29 H4           9.3110    21.8880    57.6100 h1         1 C42      -0.005300
     30 H5'1         7.5190    22.0420    56.1070 h1         1 C42       0.003700
     31 H5'2         6.8730    21.7200    57.7090 h1         1 C42       0.003700
     32 HN1          9.6770    21.4450    54.7290 hn         1 C42       0.387000
     33 HN2         10.8670    21.7820    55.7770 hn         1 C42       0.387000
@<TRIPOS>BOND
     1     1     2 1   
     2     1     6 1   
     3     1     9 1   
     4     2     3 1   
     5     2     7 2   
     6     3     4 2   
     7     4     5 1   
     8     4     8 1   
     9     5     6 2   
    10     5    21 1   
    11     6    22 1   
    12     8    23 1   
    13     8    24 1   
    14     9    10 1   
    15     9    13 1   
    16     9    25 1   
    17    10    11 1   
    18    10    26 1   
    19    10    27 1   
    20    11    12 1   
    21    11    20 1   
    22    11    28 1   
    23    12    13 1   
    24    12    14 1   
    25    12    29 1   
    26    14    15 1   
    27    14    30 1   
    28    14    31 1   
    29    15    16 1   
    30    16    17 1   
    31    16    18 1   
    32    16    19 1   
    33    20    32 1   
    34    20    33 1   
@<TRIPOS>SUBSTRUCTURE
     1 C42         1 TEMP              0 ****  ****    0 ROOT
