@<TRIPOS>MOLECULE
C4J
   48    49     1     0     0
SMALL
abcg2


@<TRIPOS>ATOM
      1 C6         131.1980   205.6400   192.0110 cc         1 C4J       0.061600
      2 C5         130.4520   204.7980   192.7470 cd         1 C4J      -0.375400
      3 N1         131.8000   206.7340   192.5540 n          1 C4J      -0.293000
      4 C2         131.7050   207.0310   193.8910 c          1 C4J       0.590000
      5 N3         130.9100   206.1890   194.6460 n          1 C4J      -0.363400
      6 C4         130.2680   205.0650   194.1480 c          1 C4J       0.589200
      7 C1         132.6060   207.6150   191.7190 c3         1 C4J       0.078300
      8 C10        129.7720   203.5850   192.1770 c5         1 C4J       0.219500
      9 C8         128.2200   203.7140   192.2230 c5         1 C4J       0.096300
     10 C3         130.7810   206.4920   196.0740 c3         1 C4J       0.101000
     11 C11        127.8070   203.3070   190.8060 c5         1 C4J       0.137300
     12 C31        131.8830   205.8370   196.8990 c3         1 C4J      -0.056400
     13 C32        131.7110   206.0580   198.4090 c3         1 C4J       0.014500
     14 C34        131.8560   207.5680   198.7310 c          1 C4J       0.694000
     15 C9         129.0090   203.8210   190.0320 c5         1 C4J       0.108300
     16 C7         129.1730   203.3360   188.6060 c3         1 C4J       0.284600
     17 N33        130.4700   205.4440   198.8690 n8         1 C4J      -0.990200
     18 O2         132.2830   207.9860   194.3740 o          1 C4J      -0.572000
     19 O1         127.5940   202.9000   193.1730 oh         1 C4J      -0.759000
     20 O3         127.6970   201.9130   190.6780 oh         1 C4J      -0.718000
     21 O35        130.8100   208.1930   199.0020 o          1 C4J      -0.740500
     22 O36        133.0100   208.0360   198.6530 o          1 C4J      -0.740500
     23 O4         129.5810   204.3590   194.8800 o          1 C4J      -0.613000
     24 O6         130.1160   203.4100   190.8260 os         1 C4J      -0.412000
     25 O5         130.3260   203.8040   187.9790 os         1 C4J      -0.587400
     26 OP1        131.5310   205.9490   188.7250 o          1 C4J      -0.929833
     27 OP2        129.1660   206.0930   187.7170 o          1 C4J      -0.929833
     28 P          130.5580   205.4740   187.6380 p5         1 C4J       1.286900
     29 H1         131.3480   205.5110   190.9420 h4         1 C4J       0.319000
     30 H2         132.2520   208.6410   191.7910 h1         1 C4J       0.064367
     31 H3         133.6530   207.5800   192.0140 h1         1 C4J       0.064367
     32 H4         132.5120   207.2840   190.6890 h1         1 C4J       0.064367
     33 H5         130.0840   202.6930   192.7350 h1         1 C4J       0.053700
     34 H6         127.9490   204.7680   192.3650 h1         1 C4J       0.047700
     35 H7         130.7870   207.5730   196.1880 h1         1 C4J       0.073700
     36 H8         129.8040   206.1370   196.3940 h1         1 C4J       0.073700
     37 H9         126.8830   203.8150   190.4980 h1         1 C4J       0.040700
     38 H10        131.8830   204.7620   196.7020 hc         1 C4J       0.038200
     39 H11        132.8550   206.2230   196.5860 hc         1 C4J       0.038200
     40 H12        132.5410   205.5310   198.8910 h1         1 C4J       0.023700
     41 H13        128.9410   204.9180   190.0120 h1         1 C4J       0.090700
     42 H14        128.2570   203.6190   188.0690 h1         1 C4J      -0.007800
     43 H15        129.2160   202.2420   188.6030 h1         1 C4J      -0.007800
     44 H16        130.5480   205.2620   199.8620 hn         1 C4J       0.373000
     45 H17        129.7420   206.1470   198.8020 hn         1 C4J       0.373000
     46 H19        128.0070   203.0880   194.0250 ho         1 C4J       0.536000
     47 H20        127.3250   201.5700   191.4990 ho         1 C4J       0.493000
     48 OP3        131.1730   205.4240   186.2470 o          1 C4J      -0.929833
@<TRIPOS>BOND
     1     1     2 2   
     2     1     3 1   
     3     1    29 1   
     4     2     6 1   
     5     2     8 1   
     6     3     4 1   
     7     3     7 1   
     8     4     5 1   
     9     4    18 2   
    10     5     6 1   
    11     5    10 1   
    12     6    23 2   
    13     7    30 1   
    14     7    31 1   
    15     7    32 1   
    16     8     9 1   
    17     8    24 1   
    18     8    33 1   
    19     9    11 1   
    20     9    19 1   
    21     9    34 1   
    22    10    12 1   
    23    10    35 1   
    24    10    36 1   
    25    11    15 1   
    26    11    20 1   
    27    11    37 1   
    28    12    13 1   
    29    12    38 1   
    30    12    39 1   
    31    13    14 1   
    32    13    17 1   
    33    13    40 1   
    34    14    21 1   
    35    14    22 1   
    36    15    16 1   
    37    15    24 1   
    38    15    41 1   
    39    16    25 1   
    40    16    42 1   
    41    16    43 1   
    42    17    44 1   
    43    17    45 1   
    44    19    46 1   
    45    20    47 1   
    46    25    28 1   
    47    26    28 1   
    48    27    28 1   
    49    28    48 1   
@<TRIPOS>SUBSTRUCTURE
     1 C4J         1 TEMP              0 ****  ****    0 ROOT
