@<TRIPOS>MOLECULE
C5L
   46    47     1     0     0
SMALL
abcg2


@<TRIPOS>ATOM
      1 P           12.0080     4.3360    23.9470 p5         1 C5L       1.266900
      2 N1           8.7020     1.3230    20.8480 n          1 C5L      -0.325000
      3 C2           8.1170     0.8030    19.6900 c          1 C5L       0.708400
      4 O2           7.3260    -0.1310    19.7860 o          1 C5L      -0.623000
      5 N3           8.4490     1.3590    18.5090 nc         1 C5L      -0.821100
      6 C4           9.3360     2.3340    18.4400 cd         1 C5L       0.778500
      7 N4           9.6160     2.8340    17.2340 nv         1 C5L      -1.052200
      8 C5           9.9980     2.8630    19.5960 cd         1 C5L      -0.377800
      9 C6           9.6210     2.3170    20.7740 cc         1 C5L       0.044600
     10 C7          11.0220     3.9510    19.5070 c3         1 C5L      -0.042900
     11 C1           8.3060     0.7370    22.1370 c5         1 C5L       0.302700
     12 C8           9.1480    -0.5020    22.4970 c5         1 C5L       0.126300
     13 O1           8.4330    -1.3790    23.3200 os         1 C5L      -0.439000
     14 C3          10.2570     0.1340    23.3250 c5         1 C5L       0.144300
     15 O3          10.9120    -0.8030    24.1290 oh         1 C5L      -0.725000
     16 C9           9.4890     1.2110    24.0940 c5         1 C5L       0.116300
     17 O4           8.5040     1.6650    23.1620 os         1 C5L      -0.434000
     18 C10         10.3190     2.3680    24.6070 c3         1 C5L       0.243600
     19 O5          11.1090     2.9030    23.5980 os         1 C5L      -0.603400
     20 CA           7.6640    -2.3460    22.6420 c3         1 C5L       0.126600
     21 CB           7.1270    -3.2970    23.7050 c3         1 C5L       0.147600
     22 OC           6.2930    -4.2930    23.1730 os         1 C5L      -0.459000
     23 CD           6.9790    -5.3480    22.5450 c3         1 C5L       0.148900
     24 OP1         12.8150     3.9760    25.1890 o          1 C5L      -0.917833
     25 OP2         12.8130     4.4720    22.6590 o          1 C5L      -0.917833
     26 OP3         10.9430     5.4050    24.1650 o          1 C5L      -0.917833
     27 H6          10.0470     2.6640    21.7080 h4         1 C5L       0.304000
     28 H5           9.6420     3.1140    25.0480 h1         1 C5L       0.014700
     29 H1           7.2470     0.4910    22.0550 h2         1 C5L       0.086700
     30 H2           9.5210    -1.0160    21.6020 h1         1 C5L       0.057700
     31 H3          10.9580     0.6200    22.6350 h1         1 C5L       0.090700
     32 H4           8.9860     0.7520    24.9560 h1         1 C5L       0.032700
     33 H41          9.1370     2.4820    16.4230 hn         1 C5L       0.486000
     34 H42         10.2540     3.5990    17.1070 hn         1 C5L       0.486000
     35 H5'         10.9180     1.9770    25.4440 h1         1 C5L       0.014700
     36 H71         10.5970     4.8780    19.1120 hc         1 C5L       0.055700
     37 H72         11.4460     4.1710    20.4860 hc         1 C5L       0.055700
     38 H73         11.8490     3.6700    18.8510 hc         1 C5L       0.055700
     39 HCA1         6.8320    -1.8930    22.0900 h1         1 C5L       0.034700
     40 HCA2         8.2860    -2.8790    21.9110 h1         1 C5L       0.034700
     41 HCB1         6.5250    -2.7290    24.4190 h1         1 C5L       0.053700
     42 HCB2         7.9680    -3.7350    24.2600 h1         1 C5L       0.053700
     43 HCD1         6.2450    -6.1060    22.2760 h1         1 C5L       0.021367
     44 HCD2         7.4970    -5.0400    21.6300 h1         1 C5L       0.021367
     45 HCD3         7.7190    -5.8060    23.2110 h1         1 C5L       0.021367
     46 HO3         11.7270    -0.4050    24.4480 ho         1 C5L       0.523000
@<TRIPOS>BOND
     1     1    19 1   
     2     1    24 1   
     3     1    25 1   
     4     1    26 1   
     5     2     3 1   
     6     2     9 1   
     7     2    11 1   
     8     3     4 2   
     9     3     5 1   
    10     5     6 2   
    11     6     7 1   
    12     6     8 1   
    13     7    33 1   
    14     7    34 1   
    15     8     9 2   
    16     8    10 1   
    17     9    27 1   
    18    10    36 1   
    19    10    37 1   
    20    10    38 1   
    21    11    12 1   
    22    11    17 1   
    23    11    29 1   
    24    12    13 1   
    25    12    14 1   
    26    12    30 1   
    27    13    20 1   
    28    14    15 1   
    29    14    16 1   
    30    14    31 1   
    31    15    46 1   
    32    16    17 1   
    33    16    18 1   
    34    16    32 1   
    35    18    19 1   
    36    18    28 1   
    37    18    35 1   
    38    20    21 1   
    39    20    39 1   
    40    20    40 1   
    41    21    22 1   
    42    21    41 1   
    43    21    42 1   
    44    22    23 1   
    45    23    43 1   
    46    23    44 1   
    47    23    45 1   
@<TRIPOS>SUBSTRUCTURE
     1 C5L         1 TEMP              0 ****  ****    0 ROOT
