@<TRIPOS>MOLECULE
CDF
   37    38     1     0     0
SMALL
abcg2


@<TRIPOS>ATOM
      1 O3B        -16.1510   -14.2460     4.5380 o          1 CDF      -0.949833
      2 PB         -15.3160   -15.1770     3.6710 p5         1 CDF       1.363900
      3 O1B        -16.1200   -16.0950     2.7620 o          1 CDF      -0.949833
      4 O2B        -14.1320   -15.8310     4.3700 o          1 CDF      -0.949833
      5 O3A        -14.5960   -14.1270     2.4670 os         1 CDF      -0.710800
      6 PA         -13.5080   -12.9670     2.5560 p5         1 CDF       1.468800
      7 O1A        -13.8070   -11.9270     1.5040 o          1 CDF      -0.904500
      8 O2A        -13.2260   -12.4920     3.9550 o          1 CDF      -0.904500
      9 O5         -12.1840   -13.8520     2.0440 os         1 CDF      -0.540400
     10 C5         -11.0810   -13.1820     1.4990 c3         1 CDF       0.241600
     11 C4         -10.7880   -13.6910     0.0910 c5         1 CDF       0.107300
     12 O4         -11.9260   -13.6100    -0.7540 os         1 CDF      -0.390000
     13 C3          -9.7110   -12.8700    -0.6290 c5         1 CDF       0.107300
     14 O3          -8.9790   -13.6340    -1.5490 oh         1 CDF      -0.751000
     15 C2         -10.5350   -11.7570    -1.3190 c5         1 CDF       0.094300
     16 O2         -10.4710   -10.4870    -0.7250 oh         1 CDF      -0.740000
     17 C1         -11.9760   -12.3360    -1.3230 c5         1 CDF       0.276700
     18 N1         -12.6150   -12.4230    -2.6240 n          1 CDF      -0.278000
     19 C9         -12.0450   -13.1760    -3.6610 c          1 CDF       0.723400
     20 O6         -10.9770   -13.7560    -3.4780 o          1 CDF      -0.589000
     21 N3         -12.6910   -13.2390    -4.8380 nc         1 CDF      -0.807100
     22 C8         -13.8360   -12.6090    -5.0260 cd         1 CDF       0.783500
     23 N4         -14.4200   -12.7060    -6.2170 nv         1 CDF      -1.058200
     24 C6         -13.8000   -11.7910    -2.8160 cc         1 CDF       0.079600
     25 C7         -14.4520   -11.8400    -3.9920 cd         1 CDF      -0.534600
     26 H5'1       -11.2270   -12.0950     1.4960 h1         1 CDF      -0.015800
     27 H5'2       -10.1860   -13.3630     2.1070 h1         1 CDF      -0.015800
     28 H4         -10.5060   -14.7460     0.1480 h1         1 CDF       0.094700
     29 H3          -8.9940   -12.4370     0.0750 h1         1 CDF       0.069700
     30 H1         -12.6150   -11.6790    -0.7220 h2         1 CDF       0.132700
     31 HA          -9.5820   -13.8360    -2.2840 ho         1 CDF       0.542000
     32 H2         -10.1620   -11.6050    -2.3320 h1         1 CDF       0.068700
     33 HB         -10.7850   -10.5250     0.1850 ho         1 CDF       0.533000
     34 H41N       -15.2960   -12.2540    -6.4150 hn         1 CDF       0.482500
     35 H42N       -13.9950   -13.2550    -6.9450 hn         1 CDF       0.482500
     36 H6         -14.1930   -11.2450    -1.9690 h4         1 CDF       0.246000
     37 H5         -15.3920   -11.3290    -4.1330 ha         1 CDF       0.190000
@<TRIPOS>BOND
     1     1     2 1   
     2     2     3 1   
     3     2     4 1   
     4     2     5 1   
     5     5     6 1   
     6     6     7 1   
     7     6     8 1   
     8     6     9 1   
     9     9    10 1   
    10    10    11 1   
    11    10    26 1   
    12    10    27 1   
    13    11    12 1   
    14    11    13 1   
    15    11    28 1   
    16    12    17 1   
    17    13    14 1   
    18    13    15 1   
    19    13    29 1   
    20    14    31 1   
    21    15    16 1   
    22    15    17 1   
    23    15    32 1   
    24    16    33 1   
    25    17    18 1   
    26    17    30 1   
    27    18    19 1   
    28    18    24 1   
    29    19    20 2   
    30    19    21 1   
    31    21    22 2   
    32    22    23 1   
    33    22    25 1   
    34    23    34 1   
    35    23    35 1   
    36    24    25 2   
    37    24    36 1   
    38    25    37 1   
@<TRIPOS>SUBSTRUCTURE
     1 CDF         1 TEMP              0 ****  ****    0 ROOT
