@<TRIPOS>MOLECULE
CJ1
   35    37     1     0     0
SMALL
abcg2


@<TRIPOS>ATOM
      1 C2          21.2450     4.5060   -11.7960 ca         1 CJ1       0.355300
      2 C4          21.0950     5.3030    -9.7430 ca         1 CJ1       0.141500
      3 C5          21.5940     6.5560   -10.1250 ca         1 CJ1      -0.218800
      4 C6          21.9040     6.6620   -11.4800 ca         1 CJ1       0.401300
      5 C7          21.6300     7.3730    -8.9540 cc         1 CJ1      -0.234200
      6 P           19.4620     7.9270    -4.6620 p5         1 CJ1       1.261900
      7 OP1         18.9410     8.0060    -3.2310 o          1 CJ1      -0.916500
      8 C11         18.5010     5.4390    -5.0230 c3         1 CJ1       0.243600
      9 C10         18.7330     4.2150    -5.8910 c5         1 CJ1       0.155300
     10 C3          19.9340     3.3590    -5.4870 c5         1 CJ1       0.137300
     11 O3          19.6190     2.0170    -5.8010 oh         1 CJ1      -0.742000
     12 C9          21.0380     3.9070    -6.3780 c5         1 CJ1      -0.151400
     13 C1          20.2740     4.2550    -7.6490 c5         1 CJ1       0.325300
     14 O4          18.9670     4.5850    -7.2500 os         1 CJ1      -0.442000
     15 N9          20.8460     5.3390    -8.4090 na         1 CJ1      -0.180400
     16 C8          21.1630     6.6040    -7.9370 cd         1 CJ1      -0.066100
     17 N3          20.9080     4.2610   -10.5520 nb         1 CJ1      -0.218000
     18 O2          21.0800     3.4940   -12.6440 oh         1 CJ1      -0.643300
     19 N1          21.7300     5.6440   -12.3010 nb         1 CJ1      -0.420000
     20 O6          22.3800     7.8000   -11.9550 oh         1 CJ1      -0.634300
     21 OP2         20.9080     8.3710    -4.8580 o          1 CJ1      -0.916500
     22 H1          21.9550     8.3980    -8.8750 ha         1 CJ1       0.220000
     23 H3          17.6310     5.9760    -5.4240 h1         1 CJ1       0.007700
     24 H4          18.2000     5.0690    -4.0290 h1         1 CJ1       0.007700
     25 H5          17.8220     3.6060    -5.8480 h1         1 CJ1       0.039700
     26 H6          20.1720     3.4710    -4.4220 h1         1 CJ1       0.069700
     27 H7          20.4100     1.4830    -5.6740 ho         1 CJ1       0.477000
     28 H8          21.8370     3.1880    -6.5650 hc         1 CJ1       0.074200
     29 H9          21.4790     4.7930    -5.9240 hc         1 CJ1       0.074200
     30 H10         20.2520     3.4000    -8.3310 h2         1 CJ1       0.064700
     31 H11         21.0370     6.8590    -6.8960 h4         1 CJ1       0.318000
     32 OP3         18.4770     8.4250    -5.7160 o          1 CJ1      -0.916500
     33 H2          21.3560     3.7750   -13.5260 ho         1 CJ1       0.468000
     34 H12         22.5380     7.7150   -12.9060 ho         1 CJ1       0.462000
     35 O5          19.6330     6.2400    -4.9700 os         1 CJ1      -0.602400
@<TRIPOS>BOND
     1     1    17 ar  
     2     1    18 1   
     3     1    19 ar  
     4     2     3 ar  
     5     2    15 1   
     6     2    17 ar  
     7     3     4 ar  
     8     3     5 1   
     9     4    19 ar  
    10     4    20 1   
    11     5    16 2   
    12     5    22 1   
    13     6     7 1   
    14     6    21 1   
    15     6    32 1   
    16     6    35 1   
    17     8     9 1   
    18     8    23 1   
    19     8    24 1   
    20     8    35 1   
    21     9    10 1   
    22     9    14 1   
    23     9    25 1   
    24    10    11 1   
    25    10    12 1   
    26    10    26 1   
    27    11    27 1   
    28    12    13 1   
    29    12    28 1   
    30    12    29 1   
    31    13    14 1   
    32    13    15 1   
    33    13    30 1   
    34    15    16 1   
    35    16    31 1   
    36    18    33 1   
    37    20    34 1   
@<TRIPOS>SUBSTRUCTURE
     1 CJ1         1 TEMP              0 ****  ****    0 ROOT
