@<TRIPOS>MOLECULE
CMR
   35    36     1     0     0
SMALL
abcg2


@<TRIPOS>ATOM
      1 P           -3.6460    -1.7500     2.9400 p5         1 CMR       1.408400
      2 CMP         -5.1590    -0.7330     3.0120 c3         1 CMR      -0.471100
      3 OP1         -3.6770    -2.7920     4.0200 o          1 CMR      -0.824500
      4 O5          -2.4910    -0.6580     3.4270 os         1 CMR      -0.581400
      5 C5          -1.9920     0.3050     2.5320 c3         1 CMR       0.211600
      6 C4          -0.5040     0.5080     2.7630 c5         1 CMR       0.124300
      7 O4           0.2040    -0.7260     2.6870 os         1 CMR      -0.434000
      8 C1           1.0480    -0.7460     1.5620 c5         1 CMR       0.322700
      9 N1           0.9970    -2.0670     0.9500 n          1 CMR      -0.321000
     10 C6          -0.1950    -2.6820     0.7700 cc         1 CMR       0.047600
     11 C7          -0.2750    -3.9090     0.2170 cd         1 CMR      -0.492600
     12 C8           0.9580    -4.5220    -0.1570 cd         1 CMR       0.782500
     13 N4           0.9540    -5.7460    -0.6880 nv         1 CMR      -1.048200
     14 N3           2.1190    -3.9180     0.0030 nc         1 CMR      -0.803100
     15 C2           2.1930    -2.6800     0.5350 c          1 CMR       0.719400
     16 O2           3.2520    -2.0800     0.6630 o          1 CMR      -0.584000
     17 C3           0.1080     1.4110     1.6830 c5         1 CMR       0.130300
     18 C9           0.5620     0.3840     0.6630 c5         1 CMR      -0.124400
     19 O3           1.2500     2.1010     2.1360 oh         1 CMR      -0.718000
     20 OP3         -3.3810    -2.1420     1.5060 o          1 CMR      -0.824500
     21 HMP1        -5.3370    -0.3580     4.0200 hc         1 CMR       0.038033
     22 HMP2        -5.1060     0.1220     2.3360 hc         1 CMR       0.038033
     23 HMP3        -6.0240    -1.3290     2.7200 hc         1 CMR       0.038033
     24 H5          -2.1720     0.0150     1.4910 h1         1 CMR       0.016200
     25 H5'         -2.4910     1.2710     2.6870 h1         1 CMR       0.016200
     26 H4          -0.3490     0.9280     3.7640 h1         1 CMR       0.068700
     27 H1           2.0850    -0.5900     1.8590 h2         1 CMR       0.103700
     28 H6          -1.0890    -2.1660     1.0960 h4         1 CMR       0.268000
     29 H7          -1.2280    -4.4000     0.0840 ha         1 CMR       0.219000
     30 H41          0.1010    -6.2590    -0.8250 hn         1 CMR       0.491500
     31 H42          1.8210    -6.1880    -0.9450 hn         1 CMR       0.491500
     32 H3          -0.6390     2.1010     1.2710 h1         1 CMR       0.045700
     33 H2          -0.2820     0.0590     0.0510 hc         1 CMR       0.072700
     34 H2'          1.3390     0.7560    -0.0030 hc         1 CMR       0.072700
     35 HO3          0.9930     2.6810     2.8600 ho         1 CMR       0.500000
@<TRIPOS>BOND
     1     1     2 1   
     2     1     3 1   
     3     1     4 1   
     4     1    20 1   
     5     2    21 1   
     6     2    22 1   
     7     2    23 1   
     8     4     5 1   
     9     5     6 1   
    10     5    24 1   
    11     5    25 1   
    12     6     7 1   
    13     6    17 1   
    14     6    26 1   
    15     7     8 1   
    16     8     9 1   
    17     8    18 1   
    18     8    27 1   
    19     9    10 1   
    20     9    15 1   
    21    10    11 2   
    22    10    28 1   
    23    11    12 1   
    24    11    29 1   
    25    12    13 1   
    26    12    14 2   
    27    13    30 1   
    28    13    31 1   
    29    14    15 1   
    30    15    16 2   
    31    17    18 1   
    32    17    19 1   
    33    17    32 1   
    34    18    33 1   
    35    18    34 1   
    36    19    35 1   
@<TRIPOS>SUBSTRUCTURE
     1 CMR         1 TEMP              0 ****  ****    0 ROOT
