@<TRIPOS>MOLECULE
CMX
   84    86     1     0     0
SMALL
abcg2


@<TRIPOS>ATOM
      1 N1A         19.6530    -8.0620    12.4610 nb         1 CMX      -0.347000
      2 C2A         18.8600    -8.2050    13.5200 ca         1 CMX       0.110900
      3 N3A         17.9480    -9.1350    13.7440 nb         1 CMX      -0.151000
      4 C4A         17.8770   -10.0080    12.7420 ca         1 CMX       0.111500
      5 C5A         18.6390    -9.9910    11.5840 ca         1 CMX      -0.075600
      6 C6A         19.5700    -8.9450    11.4610 ca         1 CMX       0.405900
      7 N6A         20.3810    -8.8150    10.4050 nv         1 CMX      -1.088900
      8 N7A         18.3020   -11.0460    10.7760 nc         1 CMX      -0.663100
      9 C8A         17.3630   -11.6790    11.4270 cd         1 CMX       0.496700
     10 N9A         17.0660   -11.1020    12.6230 na         1 CMX      -0.243300
     11 C1B         16.0170   -11.5040    13.5390 c5         1 CMX       0.312300
     12 C2B         14.6260   -11.0520    13.1050 c5         1 CMX       0.115300
     13 O2B         14.4370    -9.7140    13.4540 oh         1 CMX      -0.718000
     14 C3B         13.7380   -12.0900    13.8020 c5         1 CMX       0.216300
     15 O3B         13.5260   -11.7280    15.1250 os         1 CMX      -0.582400
     16 P3B         12.0930   -12.3450    15.8660 p5         1 CMX       1.279900
     17 O7A         10.9610   -11.6340    15.1310 o          1 CMX      -0.932167
     18 O8A         12.3090   -11.9170    17.3090 o          1 CMX      -0.932167
     19 O9A         12.1520   -13.8520    15.6160 o          1 CMX      -0.932167
     20 C4B         14.6130   -13.3520    13.6910 c5         1 CMX       0.117300
     21 O4B         15.9710   -12.8930    13.5770 os         1 CMX      -0.487000
     22 C5B         14.2770   -14.3000    12.5620 c3         1 CMX       0.215600
     23 O5B         14.2510   -13.6410    11.3120 os         1 CMX      -0.598400
     24 P1A         14.8730   -14.4420    10.0110 p5         1 CMX       1.481800
     25 O1A         13.9980   -15.6020     9.6570 o          1 CMX      -0.878000
     26 O2A         16.3440   -14.6400    10.2350 o          1 CMX      -0.878000
     27 O3A         14.7130   -13.2220     8.9430 os         1 CMX      -0.720800
     28 P2A         13.5060   -12.9980     7.8290 p5         1 CMX       1.480800
     29 O4A         13.8280   -13.8090     6.6140 o          1 CMX      -0.852000
     30 O5A         12.1690   -13.0540     8.4930 o          1 CMX      -0.852000
     31 O6A         13.7890   -11.4110     7.5470 os         1 CMX      -0.600400
     32 CBP         15.3900    -9.6290     7.2120 c3         1 CMX      -0.047000
     33 CCP         14.8330   -10.9650     6.7080 c3         1 CMX       0.256600
     34 CDP         16.2790    -9.0610     6.1030 c3         1 CMX      -0.073600
     35 CEP         14.2370    -8.6500     7.4470 c3         1 CMX      -0.073600
     36 CAP         16.1990    -9.8920     8.5110 c3         1 CMX       0.109300
     37 OAP         17.4440   -10.4390     8.1590 oh         1 CMX      -0.705000
     38 C9P         16.3400    -8.6420     9.3800 c          1 CMX       0.557100
     39 O9P         15.5350    -8.3970    10.2710 o          1 CMX      -0.594100
     40 N8P         17.3790    -7.8420     9.1000 ns         1 CMX      -0.516900
     41 C7P         17.6300    -6.6120     9.8120 c3         1 CMX       0.124000
     42 C6P         16.7280    -5.4720     9.3590 c3         1 CMX      -0.181400
     43 C5P         16.9320    -5.1240     7.8980 c          1 CMX       0.604100
     44 O5P         18.0500    -5.0700     7.4020 o          1 CMX      -0.660100
     45 N4P         15.8120    -4.8450     7.2150 ns         1 CMX      -0.497900
     46 C3P         15.7920    -4.4230     5.8300 c3         1 CMX       0.109000
     47 C2P         15.8090    -5.5750     4.8350 c3         1 CMX      -0.074400
     48 C1          15.8240    -5.0960     3.3920 c3         1 CMX      -0.201400
     49 C2          14.5410    -4.3990     2.8910 c          1 CMX       0.712000
     50 O21         13.4890    -4.5990     3.5320 o          1 CMX      -0.754500
     51 O22         14.6620    -3.7150     1.8540 o          1 CMX      -0.754500
     52 H2A         18.9790    -7.4570    14.2960 h5         1 CMX       0.007100
     53 H61A        20.2310    -9.3670     9.5790 hn         1 CMX       0.480000
     54 H62A        20.9330    -7.9790    10.3080 hn         1 CMX       0.480000
     55 H8A         16.8850   -12.5870    11.0840 h5         1 CMX       0.157800
     56 H1B         16.2710   -11.0650    14.5120 h2         1 CMX       0.086700
     57 H2B         14.5420   -11.2010    12.0200 h1         1 CMX       0.066700
     58 HO2A        13.5800    -9.4300    13.1230 ho         1 CMX       0.511000
     59 H3B         12.7940   -12.2160    13.2550 h1         1 CMX       0.083700
     60 H4B         14.5140   -13.9260    14.6150 h1         1 CMX       0.092700
     61 H51A        14.9980   -15.1260    12.5740 h1         1 CMX       0.023700
     62 H52A        13.2960   -14.7310    12.7860 h1         1 CMX       0.023700
     63 H121        15.6440   -11.6970     6.6340 h1         1 CMX       0.010200
     64 H122        14.4460   -10.8170     5.6920 h1         1 CMX       0.010200
     65 H131        16.7620    -8.1330     6.4090 hc         1 CMX       0.025700
     66 H132        17.0530    -9.7590     5.7870 hc         1 CMX       0.025700
     67 H133        15.6700    -8.8270     5.2280 hc         1 CMX       0.025700
     68 H141        14.6080    -7.6360     7.6090 hc         1 CMX       0.025700
     69 H142        13.5980    -8.6170     6.5620 hc         1 CMX       0.025700
     70 H143        13.6150    -8.9210     8.2990 hc         1 CMX       0.025700
     71 H10         15.6160   -10.5880     9.1280 h1         1 CMX       0.126700
     72 HO1         17.8680   -10.7690     8.9740 ho         1 CMX       0.485000
     73 HN8         18.0420    -8.1450     8.4060 hn         1 CMX       0.321500
     74 H71         17.4950    -6.7710    10.8820 h1         1 CMX       0.047200
     75 H72         18.6740    -6.3470     9.6590 h1         1 CMX       0.047200
     76 H61         15.6850    -5.7120     9.5700 hc         1 CMX       0.057200
     77 H62         16.9680    -4.5820     9.9480 hc         1 CMX       0.057200
     78 HN4         14.9270    -4.9630     7.6820 hn         1 CMX       0.317500
     79 H31         14.8930    -3.8240     5.6860 h1         1 CMX       0.041200
     80 H32         16.6450    -3.7640     5.6530 h1         1 CMX       0.041200
     81 H21         16.6950    -6.1880     5.0240 hc         1 CMX       0.046200
     82 H22         14.9440    -6.2190     5.0100 hc         1 CMX       0.046200
     83 H11         16.6800    -4.4330     3.2290 hc         1 CMX       0.013200
     84 H12         16.0010    -5.9570     2.7370 hc         1 CMX       0.013200
@<TRIPOS>BOND
     1     1     2 ar  
     2     1     6 ar  
     3     2     3 ar  
     4     2    52 1   
     5     3     4 ar  
     6     4     5 ar  
     7     4    10 1   
     8     5     6 ar  
     9     5     8 1   
    10     6     7 1   
    11     7    53 1   
    12     7    54 1   
    13     8     9 2   
    14     9    10 1   
    15     9    55 1   
    16    10    11 1   
    17    11    12 1   
    18    11    21 1   
    19    11    56 1   
    20    12    13 1   
    21    12    14 1   
    22    12    57 1   
    23    13    58 1   
    24    14    15 1   
    25    14    20 1   
    26    14    59 1   
    27    15    16 1   
    28    16    17 1   
    29    16    18 1   
    30    16    19 1   
    31    20    21 1   
    32    20    22 1   
    33    20    60 1   
    34    22    23 1   
    35    22    61 1   
    36    22    62 1   
    37    23    24 1   
    38    24    25 1   
    39    24    26 1   
    40    24    27 1   
    41    27    28 1   
    42    28    29 1   
    43    28    30 1   
    44    28    31 1   
    45    31    33 1   
    46    32    33 1   
    47    32    34 1   
    48    32    35 1   
    49    32    36 1   
    50    33    63 1   
    51    33    64 1   
    52    34    65 1   
    53    34    66 1   
    54    34    67 1   
    55    35    68 1   
    56    35    69 1   
    57    35    70 1   
    58    36    37 1   
    59    36    38 1   
    60    36    71 1   
    61    37    72 1   
    62    38    39 2   
    63    38    40 1   
    64    40    41 1   
    65    40    73 1   
    66    41    42 1   
    67    41    74 1   
    68    41    75 1   
    69    42    43 1   
    70    42    76 1   
    71    42    77 1   
    72    43    44 2   
    73    43    45 1   
    74    45    46 1   
    75    45    78 1   
    76    46    47 1   
    77    46    79 1   
    78    46    80 1   
    79    47    48 1   
    80    47    81 1   
    81    47    82 1   
    82    48    49 1   
    83    48    83 1   
    84    48    84 1   
    85    49    50 1   
    86    49    51 1   
@<TRIPOS>SUBSTRUCTURE
     1 CMX         1 TEMP              0 ****  ****    0 ROOT
