@<TRIPOS>MOLECULE
CQM
   94    96     1     0     0
SMALL
abcg2


@<TRIPOS>ATOM
      1 C2         -31.7110    18.4830   -14.8050 c3         1 CQM      -0.156400
      2 C4         -32.9110    16.2920   -14.8270 c          1 CQM       0.696000
      3 C6         -30.6430    16.4610   -15.9080 c3         1 CQM      -0.076100
      4 P2A        -22.1890    25.4030    -5.3480 p5         1 CQM       1.490800
      5 O5A        -20.9230    26.1090    -5.7550 o          1 CQM      -0.845500
      6 O4A        -23.1100    26.0200    -4.3480 o          1 CQM      -0.845500
      7 O3A        -21.8780    23.8470    -4.9150 os         1 CQM      -0.732800
      8 O6A        -22.9540    25.1040    -6.7590 os         1 CQM      -0.609400
      9 P1A        -21.1550    23.2930    -3.5390 p5         1 CQM       1.475800
     10 O1A        -22.1620    22.4600    -2.8140 o          1 CQM      -0.852500
     11 O2A        -20.4220    24.4000    -2.8490 o          1 CQM      -0.852500
     12 O5B        -20.0960    22.2840    -4.3030 os         1 CQM      -0.644400
     13 C5B        -18.7500    22.0950    -3.9140 c3         1 CQM       0.228600
     14 C4B        -17.7320    22.6020    -4.9240 c5         1 CQM       0.086300
     15 O4B        -17.8810    21.9380    -6.1960 os         1 CQM      -0.488000
     16 C3B        -17.7970    24.1050    -5.2260 c5         1 CQM       0.226300
     17 O3B        -16.5700    24.6480    -5.5930 os         1 CQM      -0.579400
     18 C2B        -18.7340    24.0830    -6.4300 c5         1 CQM       0.145300
     19 O2B        -18.8240    25.2310    -7.2030 oh         1 CQM      -0.753000
     20 C1B        -18.2220    22.8650    -7.1870 c5         1 CQM       0.283300
     21 P3B        -15.2860    24.6870    -4.4440 p5         1 CQM       1.283900
     22 O7A        -14.5430    25.9470    -4.8690 o          1 CQM      -0.935833
     23 O8A        -14.5320    23.3840    -4.6940 o          1 CQM      -0.935833
     24 O9A        -15.9980    24.7580    -3.0950 o          1 CQM      -0.935833
     25 N9A        -19.2310    22.2980    -8.0610 na         1 CQM      -0.225300
     26 C4A        -19.1680    22.1600    -9.4190 ca         1 CQM       0.115500
     27 N3A        -18.1560    22.4490   -10.2350 nb         1 CQM      -0.157000
     28 C2A        -18.4550    22.1930   -11.4970 ca         1 CQM       0.118900
     29 N1A        -19.5900    21.7140   -11.9990 nb         1 CQM      -0.343000
     30 C6A        -20.6000    21.4280   -11.1700 ca         1 CQM       0.416900
     31 C5A        -20.4020    21.6520    -9.7960 ca         1 CQM      -0.086600
     32 N7A        -21.1970    21.4720    -8.6920 nc         1 CQM      -0.690100
     33 C8A        -20.4670    21.8660    -7.6870 cd         1 CQM       0.488700
     34 N6A        -21.7380    20.9390   -11.6700 nv         1 CQM      -1.094900
     35 CBP        -24.6940    24.5030    -8.3000 c3         1 CQM      -0.047000
     36 CCP        -24.2810    24.6180    -6.8270 c3         1 CQM       0.255600
     37 CDP        -24.6020    25.8870    -8.9470 c3         1 CQM      -0.074600
     38 CEP        -26.1490    24.0320    -8.3410 c3         1 CQM      -0.074600
     39 CAP        -23.7620    23.4920    -9.0100 c3         1 CQM       0.120300
     40 OAP        -23.8580    22.2490    -8.3660 oh         1 CQM      -0.697000
     41 C9P        -24.0590    23.3730   -10.5080 c          1 CQM       0.562100
     42 O9P        -23.6600    24.2040   -11.3130 o          1 CQM      -0.621100
     43 N8P        -24.7610    22.2900   -10.8730 ns         1 CQM      -0.525900
     44 C7P        -25.1670    22.0400   -12.2340 c3         1 CQM       0.118000
     45 C6P        -26.4240    22.8190   -12.6170 c3         1 CQM      -0.183400
     46 C5P        -26.8020    22.5880   -14.0630 c          1 CQM       0.602100
     47 O5P        -25.9680    22.6080   -14.9580 o          1 CQM      -0.620100
     48 N4P        -28.1120    22.3930   -14.2970 ns         1 CQM      -0.510900
     49 C3P        -28.6510    22.1680   -15.6160 c3         1 CQM       0.114000
     50 C2P        -28.4530    20.7410   -16.1050 c3         1 CQM       0.035600
     51 S1P        -29.1830    19.4980   -15.0110 ss         1 CQM      -0.405600
     52 C1         -30.8810    19.5080   -15.5270 c          1 CQM       0.633700
     53 O2         -31.3000    20.2680   -16.3620 o          1 CQM      -0.538100
     54 C3         -31.9480    17.2070   -15.6440 c3         1 CQM       0.038000
     55 O7         -32.5720    17.5290   -16.8590 oh         1 CQM      -0.702000
     56 O3         -33.9900    16.0380   -15.4100 o          1 CQM      -0.713500
     57 O4         -32.5430    15.9180   -13.7050 o          1 CQM      -0.713500
     58 H1         -32.6770    18.9440   -14.5750 hc         1 CQM       0.076200
     59 H2         -31.2420    18.2040   -13.8610 hc         1 CQM       0.076200
     60 H3         -30.1100    16.2470   -14.9820 hc         1 CQM       0.027367
     61 H4         -30.8490    15.5110   -16.4050 hc         1 CQM       0.027367
     62 H5         -29.9750    17.0330   -16.5540 hc         1 CQM       0.027367
     63 H8         -18.5930    21.0220    -3.7640 h1         1 CQM       0.015200
     64 H9         -18.5250    22.5850    -2.9620 h1         1 CQM       0.015200
     65 H10        -16.7470    22.3410    -4.5240 h1         1 CQM       0.111700
     66 H11        -18.2450    24.6430    -4.3830 h1         1 CQM       0.106700
     67 H12        -19.7210    23.8140    -6.0530 h1         1 CQM       0.039700
     68 H13        -19.6050    25.6890    -6.8260 ho         1 CQM       0.575000
     69 H14        -17.3700    23.1100    -7.8310 h2         1 CQM       0.102700
     70 H17        -17.6760    22.4000   -12.2230 h5         1 CQM       0.009100
     71 H18        -20.7840    21.8670    -6.6560 h5         1 CQM       0.134800
     72 H19        -21.8580    20.8630   -12.6660 hn         1 CQM       0.483500
     73 H20        -22.5430    20.7910   -11.0850 hn         1 CQM       0.483500
     74 H21        -24.9700    25.3160    -6.3380 h1         1 CQM       0.021700
     75 H22        -24.3790    23.6520    -6.3230 h1         1 CQM       0.021700
     76 H23        -25.1420    26.6130    -8.3350 hc         1 CQM       0.022033
     77 H24        -23.5730    26.2350    -9.0460 hc         1 CQM       0.022033
     78 H25        -25.0550    25.8990    -9.9370 hc         1 CQM       0.022033
     79 H26        -26.7900    24.7400    -7.8120 hc         1 CQM       0.022033
     80 H27        -26.5180    23.9710    -9.3670 hc         1 CQM       0.022033
     81 H28        -26.2850    23.0550    -7.8770 hc         1 CQM       0.022033
     82 H29        -22.7400    23.8890    -8.9490 h1         1 CQM       0.118700
     83 H30        -23.0110    21.7830    -8.5160 ho         1 CQM       0.499000
     84 H31        -25.0470    21.6490   -10.1500 hn         1 CQM       0.333500
     85 H32        -25.3460    20.9690   -12.3330 h1         1 CQM       0.052200
     86 H33        -24.3500    22.2930   -12.9090 h1         1 CQM       0.052200
     87 H34        -26.2370    23.8900   -12.4880 hc         1 CQM       0.068200
     88 H35        -27.2430    22.5580   -11.9440 hc         1 CQM       0.068200
     89 H36        -28.7450    22.3490   -13.5170 hn         1 CQM       0.319500
     90 H37        -28.1800    22.8470   -16.3300 h1         1 CQM       0.050200
     91 H38        -29.7090    22.4160   -15.5910 h1         1 CQM       0.050200
     92 H39        -28.8610    20.6180   -17.1090 h1         1 CQM       0.080700
     93 H40        -27.3920    20.4970   -16.1510 h1         1 CQM       0.080700
     94 H41        -33.4290    17.0630   -16.7700 ho         1 CQM       0.473000
@<TRIPOS>BOND
     1     1    52 1   
     2     1    54 1   
     3     1    58 1   
     4     1    59 1   
     5     2    54 1   
     6     2    56 1   
     7     2    57 1   
     8     3    54 1   
     9     3    60 1   
    10     3    61 1   
    11     3    62 1   
    12     4     5 1   
    13     4     6 1   
    14     4     7 1   
    15     4     8 1   
    16     7     9 1   
    17     8    36 1   
    18     9    10 1   
    19     9    11 1   
    20     9    12 1   
    21    12    13 1   
    22    13    14 1   
    23    13    63 1   
    24    13    64 1   
    25    14    15 1   
    26    14    16 1   
    27    14    65 1   
    28    15    20 1   
    29    16    17 1   
    30    16    18 1   
    31    16    66 1   
    32    17    21 1   
    33    18    19 1   
    34    18    20 1   
    35    18    67 1   
    36    19    68 1   
    37    20    25 1   
    38    20    69 1   
    39    21    22 1   
    40    21    23 1   
    41    21    24 1   
    42    25    26 1   
    43    25    33 1   
    44    26    27 ar  
    45    26    31 ar  
    46    27    28 ar  
    47    28    29 ar  
    48    28    70 1   
    49    29    30 ar  
    50    30    31 ar  
    51    30    34 1   
    52    31    32 1   
    53    32    33 2   
    54    33    71 1   
    55    34    72 1   
    56    34    73 1   
    57    35    36 1   
    58    35    37 1   
    59    35    38 1   
    60    35    39 1   
    61    36    74 1   
    62    36    75 1   
    63    37    76 1   
    64    37    77 1   
    65    37    78 1   
    66    38    79 1   
    67    38    80 1   
    68    38    81 1   
    69    39    40 1   
    70    39    41 1   
    71    39    82 1   
    72    40    83 1   
    73    41    42 2   
    74    41    43 1   
    75    43    44 1   
    76    43    84 1   
    77    44    45 1   
    78    44    85 1   
    79    44    86 1   
    80    45    46 1   
    81    45    87 1   
    82    45    88 1   
    83    46    47 2   
    84    46    48 1   
    85    48    49 1   
    86    48    89 1   
    87    49    50 1   
    88    49    90 1   
    89    49    91 1   
    90    50    51 1   
    91    50    92 1   
    92    50    93 1   
    93    51    52 1   
    94    52    53 2   
    95    54    55 1   
    96    55    94 1   
@<TRIPOS>SUBSTRUCTURE
     1 CQM         1 TEMP              0 ****  ****    0 ROOT
