@<TRIPOS>MOLECULE
CTP
   41    42     1     0     0
SMALL
abcg2


@<TRIPOS>ATOM
      1 N1          20.0500    27.3910   -15.5640 n          1 CTP      -0.303000
      2 C2          20.4600    28.7150   -15.8170 c          1 CTP       0.723400
      3 N3          19.7960    29.4100   -16.7650 nc         1 CTP      -0.857100
      4 C4          18.8150    28.8620   -17.4560 cd         1 CTP       0.775500
      5 C5          18.4100    27.5100   -17.2570 cd         1 CTP      -0.472600
      6 C6          19.0650    26.8230   -16.3020 cc         1 CTP       0.084600
      7 O2          21.3870    29.1950   -15.1800 o          1 CTP      -0.646000
      8 N4          18.1930    29.6100   -18.3680 nv         1 CTP      -1.061200
      9 C1          20.7090    26.6010   -14.5420 c5         1 CTP       0.325700
     10 C7          19.7580    25.9630   -13.5280 c5         1 CTP       0.134300
     11 O6          19.4060    26.9130   -12.5670 oh         1 CTP      -0.724000
     12 C3          20.5890    24.7760   -13.0430 c5         1 CTP       0.091300
     13 C8          21.3530    24.3750   -14.3170 c5         1 CTP       0.130300
     14 O4          21.3940    25.5360   -15.1460 os         1 CTP      -0.465000
     15 O3          21.4550    25.2350   -12.0330 oh         1 CTP      -0.730000
     16 C9          20.7750    23.2010   -15.0800 c3         1 CTP       0.244600
     17 O5          19.4790    23.4900   -15.5380 os         1 CTP      -0.579400
     18 PA          18.3410    22.2820   -15.5250 p5         1 CTP       1.457800
     19 O1A         17.7820    22.1620   -14.1390 o          1 CTP      -0.871500
     20 O2A         18.9290    21.0840   -16.2080 o          1 CTP      -0.871500
     21 O3A         17.2920    22.9550   -16.5610 os         1 CTP      -0.710800
     22 PB          16.1470    24.1620   -16.3680 p5         1 CTP       1.549800
     23 O1B         15.9450    24.6740   -17.7690 o          1 CTP      -0.925000
     24 O2B         16.6080    25.1160   -15.3010 o          1 CTP      -0.925000
     25 O3B         14.9280    23.2440   -15.8850 os         1 CTP      -0.724800
     26 PG          13.4310    23.8240   -15.1860 p5         1 CTP       1.361900
     27 O1G         13.6940    23.7620   -13.6880 o          1 CTP      -0.958833
     28 O2G         12.4450    22.7920   -15.7100 o          1 CTP      -0.958833
     29 O3G         13.2720    25.2280   -15.7570 o          1 CTP      -0.958833
     30 H5          17.6130    27.0470   -17.8200 ha         1 CTP       0.269000
     31 H6          18.8080    25.7980   -16.0830 h4         1 CTP       0.306000
     32 HN41        17.4300    29.2490   -18.9130 hn         1 CTP       0.478000
     33 HN42        18.4610    30.5700   -18.5030 hn         1 CTP       0.478000
     34 H1          21.3950    27.2770   -14.0280 h2         1 CTP       0.077700
     35 H2          18.8730    25.5650   -14.0360 h1         1 CTP       0.175700
     36 HO2         18.6580    26.5780   -12.0640 ho         1 CTP       0.523000
     37 H3          19.9570    23.9540   -12.6840 h1         1 CTP       0.102700
     38 H4          22.3790    24.0950   -14.0430 h1         1 CTP      -0.004300
     39 HO3         22.0020    24.4960   -11.7480 ho         1 CTP       0.464000
     40 H5'1        21.4310    22.9630   -15.9250 h1         1 CTP      -0.002800
     41 H5'2        20.8080    22.3330   -14.4090 h1         1 CTP      -0.002800
@<TRIPOS>BOND
     1     1     2 1   
     2     1     6 1   
     3     1     9 1   
     4     2     3 1   
     5     2     7 2   
     6     3     4 2   
     7     4     5 1   
     8     4     8 1   
     9     5     6 2   
    10     5    30 1   
    11     6    31 1   
    12     8    32 1   
    13     8    33 1   
    14     9    10 1   
    15     9    14 1   
    16     9    34 1   
    17    10    11 1   
    18    10    12 1   
    19    10    35 1   
    20    11    36 1   
    21    12    13 1   
    22    12    15 1   
    23    12    37 1   
    24    13    14 1   
    25    13    16 1   
    26    13    38 1   
    27    15    39 1   
    28    16    17 1   
    29    16    40 1   
    30    16    41 1   
    31    17    18 1   
    32    18    19 1   
    33    18    20 1   
    34    18    21 1   
    35    21    22 1   
    36    22    23 1   
    37    22    24 1   
    38    22    25 1   
    39    25    26 1   
    40    26    27 1   
    41    26    28 1   
    42    26    29 1   
@<TRIPOS>SUBSTRUCTURE
     1 CTP         1 TEMP              0 ****  ****    0 ROOT
