@<TRIPOS>MOLECULE
73W
   35    36     1     0     0
SMALL
abcg2


@<TRIPOS>ATOM
      1 O2           6.6660    -5.9670    80.1320 o          1 73W      -0.576000
      2 C2           5.6290    -5.7360    80.7440 c          1 73W       0.713400
      3 P           -0.5920    -5.1800    78.9180 p5         1 73W       0.838200
      4 C4           4.4150    -5.4700    82.7010 cc         1 73W       0.786500
      5 C5           3.2080    -5.2230    81.9810 cc         1 73W      -0.476600
      6 C6           3.2910    -5.2400    80.6340 cd         1 73W       0.029600
      7 C1           4.5980    -5.5070    78.5430 c5         1 73W       0.299700
      8 C7           4.7020    -6.9380    77.9800 c5         1 73W       0.103300
      9 C3           3.2450    -7.2050    77.5930 c5         1 73W       0.150300
     10 C8           2.8120    -5.8320    77.0940 c5         1 73W       0.162300
     11 C9           1.3290    -5.5590    77.0800 c3         1 73W      -0.000400
     12 N1           4.4600    -5.4900    80.0070 n          1 73W      -0.340000
     13 N3           5.5590    -5.7100    82.0890 nd         1 73W      -0.774100
     14 N4           4.4040    -5.4570    84.0340 nv         1 73W      -1.031200
     15 O6           5.4850    -6.9650    76.8190 oh         1 73W      -0.698000
     16 O3           3.0330    -8.1610    76.6010 oh         1 73W      -0.690000
     17 O4           3.4810    -4.9140    77.9460 os         1 73W      -0.459000
     18 O5           0.8020    -5.7620    78.3960 os         1 73W      -0.327400
     19 SP1         -1.9250    -6.2380    77.7150 sh         1 73W      -0.383200
     20 SP2         -0.7450    -5.3570    80.8270 s          1 73W      -0.439000
     21 H1           2.2700    -5.0240    82.4770 ha         1 73W       0.220000
     22 H2           2.4270    -5.0510    80.0180 h4         1 73W       0.208000
     23 H3           5.4940    -4.9280    78.3050 h2         1 73W       0.108700
     24 H4           5.0640    -7.6440    78.7340 h1         1 73W       0.078700
     25 H5           2.7000    -7.4530    78.5130 h1         1 73W       0.063700
     26 H6           3.1530    -5.7030    76.0580 h1         1 73W       0.095700
     27 H7           1.1400    -4.5390    76.7390 h1         1 73W       0.072200
     28 H8           0.8550    -6.2480    76.3760 h1         1 73W       0.072200
     29 H9           5.2470    -5.6430    84.5500 hn         1 73W       0.503500
     30 H10          3.5580    -5.2940    84.5520 hn         1 73W       0.503500
     31 H11          6.4010    -6.8120    77.0720 ho         1 73W       0.523000
     32 H12          3.1020    -9.0370    76.9920 ho         1 73W       0.520000
     33 H13         -3.0340    -5.6910    78.2330 hs         1 73W       0.323800
     34 O1          -0.7360    -3.6920    78.3410 oh         1 73W      -0.473400
     35 H16         -0.4110    -3.0100    78.9490 ho         1 73W       0.292000
@<TRIPOS>BOND
     1     1     2 2   
     2     2    12 1   
     3     2    13 1   
     4     3    18 1   
     5     3    19 1   
     6     3    20 2   
     7     3    34 1   
     8     4     5 1   
     9     4    13 2   
    10     4    14 1   
    11     5     6 2   
    12     5    21 1   
    13     6    12 1   
    14     6    22 1   
    15     7     8 1   
    16     7    12 1   
    17     7    17 1   
    18     7    23 1   
    19     8     9 1   
    20     8    15 1   
    21     8    24 1   
    22     9    10 1   
    23     9    16 1   
    24     9    25 1   
    25    10    11 1   
    26    10    17 1   
    27    10    26 1   
    28    11    18 1   
    29    11    27 1   
    30    11    28 1   
    31    14    29 1   
    32    14    30 1   
    33    15    31 1   
    34    16    32 1   
    35    19    33 1   
    36    34    35 1   
@<TRIPOS>SUBSTRUCTURE
     1 73W         1 TEMP              0 ****  ****    0 ROOT
