@<TRIPOS>MOLECULE
77E
   41    41     1     0     0
SMALL
abcg2


@<TRIPOS>ATOM
      1 O7         -37.8320   -23.1960    11.1590 o          1 77E      -0.924167
      2 P1         -37.3520   -22.3050    10.0210 p5         1 77E       1.279900
      3 O5         -35.8540   -22.0130    10.0720 o          1 77E      -0.924167
      4 O6         -38.2160   -21.0820     9.7580 o          1 77E      -0.924167
      5 O4         -37.5830   -23.1990     8.6180 os         1 77E      -0.589400
      6 C17        -36.9470   -24.4690     8.5110 c3         1 77E       0.258900
      7 C16        -36.7190   -24.7810     7.0580 ca         1 77E      -0.034300
      8 C15        -37.5270   -25.7040     6.4120 ca         1 77E       0.278900
      9 N3         -37.4240   -26.0060     5.1140 nb         1 77E      -0.699000
     10 C13        -36.4980   -25.3840     4.3840 ca         1 77E       0.264300
     11 C14        -36.3910   -25.7140     2.9250 c3         1 77E      -0.108400
     12 C12        -35.6350   -24.4420     4.9630 ca         1 77E       0.065100
     13 O3         -34.7140   -23.8700     4.1300 oh         1 77E      -0.578100
     14 C11        -35.7270   -24.1250     6.3170 ca         1 77E      -0.078300
     15 C5         -34.7680   -23.1600     6.9610 c3         1 77E      -0.065100
     16 C6         -33.4240   -23.8240     7.3160 c3         1 77E      -0.066400
     17 C7         -32.5270   -22.9310     8.1770 c3         1 77E       0.195500
     18 C8         -31.0720   -23.4050     8.1290 c3         1 77E      -0.048400
     19 C9         -30.0540   -22.4470     8.7700 c3         1 77E      -0.189400
     20 C10        -30.0360   -22.4630    10.3070 c          1 77E       0.714000
     21 O2         -29.4860   -23.4500    10.8620 o          1 77E      -0.751500
     22 O1         -30.5730   -21.4920    10.9100 o          1 77E      -0.751500
     23 N2         -33.0300   -22.9190     9.5570 n8         1 77E      -1.058200
     24 H3         -37.5770   -25.2420     8.9580 h1         1 77E       0.025700
     25 H4         -35.9990   -24.4620     9.0530 h1         1 77E       0.025700
     26 H5         -38.2970   -26.2250     6.9690 h4         1 77E       0.008100
     27 H6         -37.1380   -26.4580     2.6610 hc         1 77E       0.022700
     28 H7         -36.5410   -24.8260     2.3100 hc         1 77E       0.022700
     29 H8         -35.4010   -26.1030     2.6800 hc         1 77E       0.022700
     30 H9         -34.2040   -23.2030     4.6030 ho         1 77E       0.469000
     31 H10        -34.5780   -22.3080     6.3000 hc         1 77E       0.088200
     32 H11        -35.2210   -22.7440     7.8560 hc         1 77E       0.088200
     33 H12        -33.6120   -24.7540     7.8570 hc         1 77E       0.019200
     34 H13        -32.8980   -24.0920     6.3970 hc         1 77E       0.019200
     35 H14        -32.5470   -21.9230     7.7320 h1         1 77E      -0.020300
     36 H15        -30.9990   -24.3910     8.5950 hc         1 77E       0.007700
     37 H16        -30.8010   -23.5300     7.0780 hc         1 77E       0.007700
     38 H17        -29.0570   -22.7300     8.4290 hc         1 77E       0.000700
     39 H18        -30.2500   -21.4320     8.4190 hc         1 77E       0.000700
     40 H20        -32.4890   -22.2670    10.1130 hn         1 77E       0.463000
     41 H21        -34.0020   -22.6130     9.6030 hn         1 77E       0.463000
@<TRIPOS>BOND
     1     1     2 1   
     2     2     3 1   
     3     2     4 1   
     4     2     5 1   
     5     5     6 1   
     6     6     7 1   
     7     6    24 1   
     8     6    25 1   
     9     7     8 ar  
    10     7    14 ar  
    11     8     9 ar  
    12     8    26 1   
    13     9    10 ar  
    14    10    11 1   
    15    10    12 ar  
    16    11    27 1   
    17    11    28 1   
    18    11    29 1   
    19    12    13 1   
    20    12    14 ar  
    21    13    30 1   
    22    14    15 1   
    23    15    16 1   
    24    15    31 1   
    25    15    32 1   
    26    16    17 1   
    27    16    33 1   
    28    16    34 1   
    29    17    18 1   
    30    17    23 1   
    31    17    35 1   
    32    18    19 1   
    33    18    36 1   
    34    18    37 1   
    35    19    20 1   
    36    19    38 1   
    37    19    39 1   
    38    20    21 1   
    39    20    22 1   
    40    23    40 1   
    41    23    41 1   
@<TRIPOS>SUBSTRUCTURE
     1 77E         1 TEMP              0 ****  ****    0 ROOT
