@<TRIPOS>MOLECULE
7LN
   65    68     1     0     0
SMALL
abcg2


@<TRIPOS>ATOM
      1 N26         23.5040     6.1400    56.8670 n2         1 7LN      -0.823100
      2 C26         22.9180     6.6120    55.8360 ce         1 7LN       0.712800
      3 C25         22.8450     5.7610    54.6400 cc         1 7LN      -0.284900
      4 S21         22.9550     4.0550    54.8340 ss         1 7LN       0.299000
      5 C22         22.9230     3.8050    53.1430 cc         1 7LN      -0.273000
      6 C23         22.8420     4.9810    52.4590 cd         1 7LN      -0.145000
      7 C24         22.7950     6.1070    53.3190 cd         1 7LN      -0.098000
      8 N27         22.4290     7.8920    55.7140 nu         1 7LN      -0.971200
      9 C31         21.2680     8.2770    55.0220 ca         1 7LN       0.292000
     10 C36         20.1610     7.4330    54.9290 ca         1 7LN      -0.123000
     11 C32         21.2170     9.5490    54.4630 ca         1 7LN      -0.145000
     12 C33         20.0670     9.9640    53.8050 ca         1 7LN      -0.088000
     13 C34         18.9800     9.1140    53.6880 ca         1 7LN      -0.130000
     14 C35         19.0210     7.8390    54.2510 ca         1 7LN      -0.087300
     15 C37         17.7900     6.9680    54.1630 c3         1 7LN       0.203900
     16 O38         17.9440     5.7030    54.7440 os         1 7LN      -0.446000
     17 C20         18.0420     4.6110    53.8490 c3         1 7LN       0.172300
     18 C21         19.3960     4.5690    53.1400 c3         1 7LN       0.113800
     19 N22         19.4260     3.5320    52.1210 n8         1 7LN      -0.997200
     20 C19         17.8140     3.3560    54.6650 c3         1 7LN       0.167600
     21 O18         16.5350     3.4000    55.2420 os         1 7LN      -0.443000
     22 C17         16.2610     2.2990    56.0620 c3         1 7LN       0.209900
     23 C15         14.9920     2.5290    56.8360 ca         1 7LN      -0.075300
     24 C14         14.5080     3.8100    57.0850 ca         1 7LN      -0.101000
     25 C13         13.3560     3.9710    57.8450 ca         1 7LN      -0.102000
     26 C12         12.6920     2.8790    58.3750 ca         1 7LN      -0.136000
     27 C16         14.3140     1.4310    57.3570 ca         1 7LN      -0.121000
     28 C11         13.1750     1.5860    58.1480 ca         1 7LN       0.175400
     29 N07         12.5090     0.4550    58.6030 ne         1 7LN      -0.680100
     30 C06         12.2190     0.2800    59.8390 cf         1 7LN       0.735800
     31 N06         11.3370    -0.6860    60.1990 nv         1 7LN      -1.030200
     32 C05         12.7580     1.0690    60.9620 cd         1 7LN      -0.337900
     33 S01         11.7490     1.5360    62.2800 ss         1 7LN       0.232000
     34 C02         13.0430     2.3320    63.0620 cd         1 7LN      -0.240000
     35 C03         14.2000     2.2380    62.3480 cc         1 7LN      -0.136000
     36 C04         14.0360     1.5170    61.1400 cc         1 7LN      -0.085000
     37 H26         23.4690     6.7910    57.6470 hn         1 7LN       0.381400
     38 H27         22.7570     8.5470    56.4090 hn         1 7LN       0.483000
     39 H24         22.7360     7.1270    52.9670 ha         1 7LN       0.145000
     40 H22         22.9640     2.8060    52.7380 h4         1 7LN       0.148000
     41 H23         22.8160     5.0450    51.3800 ha         1 7LN       0.134000
     42 H36         20.1890     6.4590    55.3990 ha         1 7LN       0.135000
     43 H32         22.0740    10.2060    54.5390 ha         1 7LN       0.118000
     44 H33         20.0280    10.9540    53.3710 ha         1 7LN       0.115000
     45 H34         18.0900     9.4450    53.1640 ha         1 7LN       0.114000
     46 H371        16.9720     7.4790    54.6840 h1         1 7LN       0.053200
     47 H372        17.4770     6.8910    53.1130 h1         1 7LN       0.053200
     48 H20         17.2590     4.6840    53.0800 h1         1 7LN       0.062700
     49 H211        19.5570     5.5300    52.6470 h1         1 7LN       0.042200
     50 H212        20.1930     4.4740    53.8910 h1         1 7LN       0.042200
     51 H191        17.9160     2.4780    54.0140 h1         1 7LN       0.029700
     52 H192        18.5920     3.2740    55.4400 h1         1 7LN       0.029700
     53 H221        20.1750     3.7300    51.4710 hn         1 7LN       0.394500
     54 H222        19.6630     2.6400    52.5350 hn         1 7LN       0.394500
     55 H171        16.1780     1.3740    55.4720 h1         1 7LN       0.026700
     56 H172        17.0850     2.1340    56.7740 h1         1 7LN       0.026700
     57 H14         15.0170     4.6770    56.6850 ha         1 7LN       0.131000
     58 H16         14.6770     0.4280    57.1580 ha         1 7LN       0.115000
     59 H13         12.9710     4.9670    58.0260 ha         1 7LN       0.109000
     60 H12         11.7920     3.0200    58.9620 ha         1 7LN       0.115000
     61 H061        11.4280    -1.1190    61.1030 hn         1 7LN       0.477000
     62 H062        11.0100    -1.2970    59.4670 hn         1 7LN       0.477000
     63 H04         14.8350     1.3300    60.4360 ha         1 7LN       0.145000
     64 H02         12.8840     2.8320    64.0050 h4         1 7LN       0.152000
     65 H03         15.1360     2.6690    62.6720 ha         1 7LN       0.138000
@<TRIPOS>BOND
     1     1     2 2   
     2     1    37 1   
     3     2     3 1   
     4     2     8 1   
     5     3     4 1   
     6     3     7 2   
     7     4     5 1   
     8     5     6 2   
     9     5    40 1   
    10     6     7 1   
    11     6    41 1   
    12     7    39 1   
    13     8     9 1   
    14     8    38 1   
    15     9    10 ar  
    16     9    11 ar  
    17    10    14 ar  
    18    10    42 1   
    19    11    12 ar  
    20    11    43 1   
    21    12    13 ar  
    22    12    44 1   
    23    13    14 ar  
    24    13    45 1   
    25    14    15 1   
    26    15    16 1   
    27    15    46 1   
    28    15    47 1   
    29    16    17 1   
    30    17    18 1   
    31    17    20 1   
    32    17    48 1   
    33    18    19 1   
    34    18    49 1   
    35    18    50 1   
    36    19    53 1   
    37    19    54 1   
    38    20    21 1   
    39    20    51 1   
    40    20    52 1   
    41    21    22 1   
    42    22    23 1   
    43    22    55 1   
    44    22    56 1   
    45    23    24 ar  
    46    23    27 ar  
    47    24    25 ar  
    48    24    57 1   
    49    25    26 ar  
    50    25    59 1   
    51    26    28 ar  
    52    26    60 1   
    53    27    28 ar  
    54    27    58 1   
    55    28    29 1   
    56    29    30 2   
    57    30    31 1   
    58    30    32 1   
    59    31    61 1   
    60    31    62 1   
    61    32    33 1   
    62    32    36 2   
    63    33    34 1   
    64    34    35 2   
    65    34    64 1   
    66    35    36 1   
    67    35    65 1   
    68    36    63 1   
@<TRIPOS>SUBSTRUCTURE
     1 7LN         1 TEMP              0 ****  ****    0 ROOT
