@<TRIPOS>MOLECULE
7P2
   44    45     1     0     0
SMALL
abcg2


@<TRIPOS>ATOM
      1 C01          1.8310   -19.5410     5.2960 ca         1 7P2      -0.225600
      2 C02          2.4230   -19.3370     6.6830 c          1 7P2       0.713600
      3 O03          1.7050   -19.6240     7.6700 o          1 7P2      -0.730000
      4 O04          3.5890   -18.9040     6.7400 o          1 7P2      -0.730000
      5 C05          2.6900   -19.4590     4.2020 ca         1 7P2      -0.058000
      6 C06          2.2670   -19.6380     2.8950 ca         1 7P2      -0.257000
      7 C07          0.9240   -19.9190     2.6710 ca         1 7P2      -0.094000
      8 C08          0.0390   -20.0080     3.7280 ca         1 7P2      -0.238000
      9 C09          0.4580   -19.8130     5.0590 ca         1 7P2       0.391000
     10 N10         -0.4250   -19.9160     6.1020 nu         1 7P2      -0.960000
     11 C11         -1.8170   -19.9100     6.0130 ca         1 7P2       0.278000
     12 C12         -2.4530   -18.9650     5.1960 ca         1 7P2      -0.156000
     13 C13         -3.8250   -18.9140     5.0670 ca         1 7P2      -0.180000
     14 C14         -4.6240   -19.8140     5.7720 ca         1 7P2       0.101100
     15 C15         -4.0090   -20.7430     6.5980 ca         1 7P2      -0.153000
     16 C16         -2.6190   -20.8030     6.7400 ca         1 7P2      -0.124600
     17 C17         -2.0630   -21.8390     7.7120 c          1 7P2       0.707600
     18 O18         -0.9960   -21.5550     8.2920 o          1 7P2      -0.716500
     19 O19         -2.7390   -22.8730     7.8680 o          1 7P2      -0.716500
     20 C20         -6.8140   -20.6250     6.2510 c3         1 7P2       0.158600
     21 C21         -8.2460   -20.3180     5.8620 c3         1 7P2      -0.075400
     22 C22         -9.2360   -21.3290     6.4390 c3         1 7P2      -0.030400
     23 C23         -9.3160   -21.3730     7.9600 c3         1 7P2      -0.394400
     24 P24        -10.5800   -22.5830     8.6240 p5         1 7P2       1.311500
     25 O25        -10.1300   -23.9540     8.0890 o          1 7P2      -0.946167
     26 O26        -10.4730   -22.4510    10.1510 o          1 7P2      -0.946167
     27 O27        -11.9290   -22.1080     8.0560 o          1 7P2      -0.946167
     28 O28         -5.9600   -19.7050     5.5920 os         1 7P2      -0.390100
     29 H2           3.7320   -19.2440     4.3970 ha         1 7P2       0.101000
     30 H3           2.9650   -19.5670     2.0720 ha         1 7P2       0.056000
     31 H4           0.5590   -20.0810     1.6640 ha         1 7P2       0.057000
     32 H5          -0.9950   -20.2480     3.5220 ha         1 7P2       0.109000
     33 H6           0.0070   -20.0640     7.0090 hn         1 7P2       0.587000
     34 H7          -1.8530   -18.2460     4.6520 ha         1 7P2       0.087000
     35 H8          -4.2840   -18.1690     4.4280 ha         1 7P2       0.080000
     36 H9          -4.5950   -21.4620     7.1540 ha         1 7P2       0.149000
     37 H11         -6.5610   -21.6540     5.9620 h1         1 7P2       0.047200
     38 H12         -6.6830   -20.5510     7.3360 h1         1 7P2       0.047200
     39 H13         -8.5060   -19.3100     6.2020 hc         1 7P2       0.004200
     40 H14         -8.3210   -20.3150     4.7710 hc         1 7P2       0.004200
     41 H15        -10.2300   -21.0990     6.0450 hc         1 7P2       0.031200
     42 H16         -8.9920   -22.3270     6.0620 hc         1 7P2       0.031200
     43 H17         -8.3370   -21.6330     8.3800 hc         1 7P2       0.006700
     44 H18         -9.5400   -20.3660     8.3360 hc         1 7P2       0.006700
@<TRIPOS>BOND
     1     1     2 1   
     2     1     5 ar  
     3     1     9 ar  
     4     2     3 1   
     5     2     4 1   
     6     5     6 ar  
     7     5    29 1   
     8     6     7 ar  
     9     6    30 1   
    10     7     8 ar  
    11     7    31 1   
    12     8     9 ar  
    13     8    32 1   
    14     9    10 1   
    15    10    11 1   
    16    10    33 1   
    17    11    12 ar  
    18    11    16 ar  
    19    12    13 ar  
    20    12    34 1   
    21    13    14 ar  
    22    13    35 1   
    23    14    15 ar  
    24    14    28 1   
    25    15    16 ar  
    26    15    36 1   
    27    16    17 1   
    28    17    18 1   
    29    17    19 1   
    30    20    21 1   
    31    20    28 1   
    32    20    37 1   
    33    20    38 1   
    34    21    22 1   
    35    21    39 1   
    36    21    40 1   
    37    22    23 1   
    38    22    41 1   
    39    22    42 1   
    40    23    24 1   
    41    23    43 1   
    42    23    44 1   
    43    24    25 1   
    44    24    26 1   
    45    24    27 1   
@<TRIPOS>SUBSTRUCTURE
     1 7P2         1 TEMP              0 ****  ****    0 ROOT
