@<TRIPOS>MOLECULE
32T
   23    24     1     0     0
SMALL
abcg2


@<TRIPOS>ATOM
      1 N            6.8080     3.3120     0.6750 n8         1 32T      -1.006200
      2 CA           5.9270     3.5260    -0.4710 c3         1 32T       0.017500
      3 CB           5.5830     2.1560    -1.0700 c3         1 32T       0.016900
      4 CG           4.7310     2.2330    -2.2920 cc         1 32T      -0.065300
      5 CD2          5.0680     2.7710    -3.5600 cc         1 32T      -0.174000
      6 CE2          3.9740     2.6580    -4.4030 cd         1 32T      -0.156000
      7 SUL          6.3890     3.5170    -4.3780 ss         1 32T       0.180000
      8 CD1          3.4270     1.8120    -2.4290 cd         1 32T      -0.156000
      9 NE1          2.9740     2.0670    -3.6960 na         1 32T      -0.114000
     10 CZ2          4.1850     3.1680    -5.7130 cd         1 32T      -0.116000
     11 CZ3          5.4480     3.6610    -5.8320 cc         1 32T      -0.244000
     12 C            4.6280     4.2900    -0.1220 c          1 32T       0.691000
     13 O            3.9780     3.8300     0.8420 o          1 32T      -0.733500
     14 OXT          4.3340     5.2840    -0.8150 o          1 32T      -0.733500
     15 H            6.2360     2.9550     1.4340 hn         1 32T       0.382000
     16 H2           7.1460     4.2090     1.0050 hn         1 32T       0.382000
     17 HA           6.4900     4.0980    -1.2160 h1         1 32T       0.042700
     18 HB1          6.5190     1.6370    -1.2970 hc         1 32T       0.034200
     19 HB2          5.0710     1.5610    -0.3080 hc         1 32T       0.034200
     20 HD1          2.7880     1.3430    -1.6980 h4         1 32T       0.144000
     21 HE1          2.0550     1.8430    -4.0380 hn         1 32T       0.333000
     22 HZ2          3.4600     3.1730    -6.5140 ha         1 32T       0.113000
     23 HZ3          5.8910     4.1110    -6.7070 h4         1 32T       0.126000
@<TRIPOS>BOND
     1     1     2 1   
     2     1    15 1   
     3     1    16 1   
     4     2     3 1   
     5     2    12 1   
     6     2    17 1   
     7     3     4 1   
     8     3    18 1   
     9     3    19 1   
    10     4     5 1   
    11     4     8 2   
    12     5     6 2   
    13     5     7 1   
    14     6     9 1   
    15     6    10 1   
    16     7    11 1   
    17     8     9 1   
    18     8    20 1   
    19     9    21 1   
    20    10    11 2   
    21    10    22 1   
    22    11    23 1   
    23    12    13 1   
    24    12    14 1   
@<TRIPOS>SUBSTRUCTURE
     1 32T         1 TEMP              0 ****  ****    0 ROOT
