@<TRIPOS>MOLECULE
3IX
  131   133     1     0     0
SMALL
abcg2


@<TRIPOS>ATOM
      1 C01         97.2990   104.4530   126.8390 c3         1 3IX      -0.084100
      2 C02         98.7670   104.8570   126.7970 c3         1 3IX      -0.080400
      3 C03         99.3330   105.0160   125.3890 c3         1 3IX      -0.073400
      4 C04         98.8060   106.2240   124.6270 c3         1 3IX      -0.072400
      5 C05         99.2620   106.2580   123.1660 c3         1 3IX      -0.046200
      6 C06        100.7530   106.2620   123.0250 c2         1 3IX      -0.194200
      7 C07        101.5030   105.4610   122.2690 c2         1 3IX      -0.238200
      8 C08        101.0260   104.3680   121.3530 c3         1 3IX      -0.002000
      9 C09        101.5340   103.0270   121.7970 c2         1 3IX      -0.232200
     10 C10        100.8220   102.0070   122.2710 c2         1 3IX      -0.194200
     11 C11         99.3360   101.9380   122.4720 c3         1 3IX      -0.019000
     12 C12         98.7160   100.8890   121.5940 c2         1 3IX      -0.217200
     13 C13         98.0940    99.7720   121.9690 c2         1 3IX      -0.209200
     14 C14         97.8760    99.2690   123.3680 c3         1 3IX      -0.017000
     15 C15         98.3100    97.8330   123.5010 c2         1 3IX      -0.218200
     16 C16         99.4930    97.4150   123.9430 c2         1 3IX      -0.206200
     17 C17        100.6150    98.2920   124.4070 c3         1 3IX      -0.050200
     18 C18        100.6430    98.4320   125.9300 c3         1 3IX      -0.064400
     19 C19        101.8240    99.2570   126.4280 c3         1 3IX      -0.168400
     20 C20        101.7490   100.7040   126.0120 c          1 3IX       0.624700
     21 C23        102.8980   103.1260   125.2910 c3         1 3IX       0.033600
     22 C24        104.1530   103.9860   125.2590 c3         1 3IX       0.137000
     23 C26        104.6650   104.6360   127.6370 c          1 3IX       0.603100
     24 C28        103.4410   105.5250   127.7080 c3         1 3IX      -0.179400
     25 C29        102.3040   104.8890   128.5040 c3         1 3IX       0.141000
     26 C31        101.9440   104.0640   130.8490 c          1 3IX       0.549100
     27 C33        100.6220   103.4110   130.4280 c3         1 3IX       0.161300
     28 C34        100.6850   101.8570   130.4980 c3         1 3IX      -0.098000
     29 C35        102.0190   101.3850   129.9050 c3         1 3IX      -0.070100
     30 C36         99.5520   101.2960   129.6350 c3         1 3IX      -0.070100
     31 C37        100.6030   101.2630   131.9150 c3         1 3IX       0.248600
     32 C47        101.8250   103.2470   137.1960 c3         1 3IX       0.219600
     33 C48        102.4350   104.5230   136.6720 c5         1 3IX       0.129300
     34 C49        102.8590   105.4740   137.7970 c5         1 3IX       0.196300
     35 C50        102.7260   106.8420   137.1010 c5         1 3IX       0.127300
     36 C51        101.4950   106.5970   136.2280 c5         1 3IX       0.288300
     37 C54         99.2420   106.0760   137.3060 cc         1 3IX       0.489700
     38 C56         98.6110   108.0100   137.8790 ca         1 3IX      -0.077600
     39 C57         97.9840   109.1830   138.3390 ca         1 3IX       0.408900
     40 C59         99.8040   110.3520   137.5550 ca         1 3IX       0.112900
     41 C61         99.8510   108.1740   137.2810 ca         1 3IX       0.095500
     42 N25        104.9150   103.9780   126.4880 ns         1 3IX      -0.521900
     43 N30        102.6770   104.6580   129.8860 ns         1 3IX      -0.540900
     44 N53        100.2510   106.9190   136.9310 na         1 3IX      -0.260300
     45 N55         98.2460   106.6900   137.8820 nd         1 3IX      -0.628100
     46 N58         98.6170   110.3470   138.1570 nb         1 3IX      -0.353000
     47 N60        100.4940   109.3260   137.0900 nb         1 3IX      -0.153000
     48 N62         96.7930   109.1780   138.9440 nv         1 3IX      -1.104900
     49 O21        100.7240   101.3350   125.9490 o          1 3IX      -0.501100
     50 O27        105.3900   104.5050   128.6140 o          1 3IX      -0.569100
     51 O32        102.3240   104.0490   132.0130 o          1 3IX      -0.502100
     52 O38         99.2770   101.1650   132.4050 os         1 3IX      -0.615400
     53 O40         97.3190   101.6420   133.8820 o          1 3IX      -0.831000
     54 O41         99.2410   103.3940   133.6510 o          1 3IX      -0.831000
     55 O42         99.6510   101.1630   134.8650 os         1 3IX      -0.715800
     56 O44         98.8620   102.6120   136.8540 o          1 3IX      -0.869500
     57 O45        100.2120   100.4200   137.2120 o          1 3IX      -0.869500
     58 O46        101.3300   102.4570   136.1340 os         1 3IX      -0.596400
     59 O52        101.4800   105.2480   135.8960 os         1 3IX      -0.412000
     60 O63        103.8080   107.1230   136.2770 oh         1 3IX      -0.847000
     61 O64        104.1120   105.1270   138.2850 os         1 3IX      -0.581400
     62 O66        104.0550   106.7820   140.2660 o          1 3IX      -0.903167
     63 O67        106.1590   105.3860   139.7120 o          1 3IX      -0.903167
     64 O68        105.4360   107.3030   138.1680 o          1 3IX      -0.903167
     65 O69         99.5560   104.0080   131.1010 oh         1 3IX      -0.724000
     66 P39         98.7660   101.9630   133.7300 p5         1 3IX       1.483800
     67 P43         99.9240   101.6480   136.4110 p5         1 3IX       1.476800
     68 P65        105.0140   106.2430   139.2190 p5         1 3IX       1.303900
     69 S22        103.3290   101.4000   125.6380 ss         1 3IX      -0.406600
     70 H1          96.9680   104.2840   127.8650 hc         1 3IX       0.030367
     71 H2          96.6480   105.2140   126.4080 hc         1 3IX       0.030367
     72 H3          97.1360   103.5270   126.2830 hc         1 3IX       0.030367
     73 H4          99.3530   104.0970   127.3180 hc         1 3IX       0.060200
     74 H5          98.9130   105.7850   127.3580 hc         1 3IX       0.060200
     75 H6          99.1340   104.1020   124.8170 hc         1 3IX       0.031700
     76 H7         100.4220   105.0940   125.4570 hc         1 3IX       0.031700
     77 H8          99.1310   107.1390   125.1320 hc         1 3IX       0.039700
     78 H9          97.7130   106.2390   124.6440 hc         1 3IX       0.039700
     79 H10         98.8560   107.1610   122.6970 hc         1 3IX       0.035200
     80 H11         98.8220   105.4120   122.6330 hc         1 3IX       0.035200
     81 H12        101.2670   107.0160   123.6160 ha         1 3IX       0.169000
     82 H14        102.5810   105.6020   122.2950 ha         1 3IX       0.160000
     83 H16         99.9400   104.3700   121.2680 hc         1 3IX       0.040700
     84 H17        101.4110   104.5660   120.3470 hc         1 3IX       0.040700
     85 H18        102.6120   102.8970   121.7340 ha         1 3IX       0.162000
     86 H20        101.3600   101.1040   122.5500 ha         1 3IX       0.171000
     87 H22         98.8690   102.9020   122.2520 hc         1 3IX       0.064700
     88 H23         99.1320   101.7360   123.5250 hc         1 3IX       0.064700
     89 H24         98.7940   101.0850   120.5280 ha         1 3IX       0.153000
     90 H26         97.6950    99.1340   121.1860 ha         1 3IX       0.153000
     91 H28         98.3840    99.8990   124.0990 hc         1 3IX       0.063200
     92 H29         96.8090    99.3280   123.6030 hc         1 3IX       0.063200
     93 H30         97.5860    97.0880   123.1860 ha         1 3IX       0.156000
     94 H32         99.6700    96.3440   123.9970 ha         1 3IX       0.159000
     95 H34        101.5650    97.8650   124.0750 hc         1 3IX       0.041700
     96 H35        100.5430    99.2780   123.9430 hc         1 3IX       0.041700
     97 H36         99.7070    98.8750   126.2770 hc         1 3IX       0.060200
     98 H37        100.7030    97.4420   126.3880 hc         1 3IX       0.060200
     99 H38        101.8430    99.2540   127.5230 hc         1 3IX       0.084200
    100 H39        102.7690    98.8140   126.1060 hc         1 3IX       0.084200
    101 H40        102.3850   103.1860   124.3320 h1         1 3IX       0.085200
    102 H41        102.2090   103.4710   126.0610 h1         1 3IX       0.085200
    103 H42        104.8200   103.6500   124.4650 h1         1 3IX       0.041200
    104 H43        103.8560   105.0010   124.9920 h1         1 3IX       0.041200
    105 H44        103.7380   106.4630   128.1810 hc         1 3IX       0.056200
    106 H45        103.0430   105.7820   126.7270 hc         1 3IX       0.056200
    107 H46        101.4430   105.5600   128.4430 h1         1 3IX       0.029700
    108 H47        102.0100   103.9560   128.0210 h1         1 3IX       0.029700
    109 H48        100.4530   103.6340   129.3720 h1         1 3IX       0.000700
    110 H49        102.0030   100.3030   129.7630 hc         1 3IX       0.017700
    111 H50        102.2100   101.8350   128.9290 hc         1 3IX       0.017700
    112 H51        102.8690   101.6130   130.5510 hc         1 3IX       0.017700
    113 H52         99.4970   100.2080   129.7190 hc         1 3IX       0.017700
    114 H53         98.5810   101.7030   129.9140 hc         1 3IX       0.017700
    115 H54         99.7230   101.5320   128.5830 hc         1 3IX       0.017700
    116 H55        100.9930   100.2420   131.8610 h1         1 3IX       0.037700
    117 H56        101.2540   101.8130   132.6000 h1         1 3IX       0.037700
    118 H57        101.0320   103.5000   137.9090 h1         1 3IX       0.021200
    119 H58        102.5980   102.7080   137.7560 h1         1 3IX       0.021200
    120 H59        103.2990   104.2950   136.0370 h1         1 3IX       0.075700
    121 H60        102.1010   105.4340   138.5970 h1         1 3IX       0.012700
    122 H61        102.5340   107.6400   137.8300 h1         1 3IX       0.051700
    123 H62        101.5250   107.2150   135.3250 h2         1 3IX       0.077700
    124 H63         99.2810   105.0110   137.1220 h5         1 3IX       0.150800
    125 H64        100.2610   111.3290   137.4360 h5         1 3IX       0.007100
    126 H65        105.7270   103.3790   126.5120 hn         1 3IX       0.311500
    127 H66        103.5600   105.0450   130.1890 hn         1 3IX       0.317500
    128 H67         96.3750   110.0390   139.2490 hn         1 3IX       0.479000
    129 H68         96.2890   108.3210   139.0900 hn         1 3IX       0.479000
    130 H71        104.5820   107.2210   136.9370 ho         1 3IX       0.610000
    131 H74         99.5870   103.8320   132.0740 ho         1 3IX       0.558000
@<TRIPOS>BOND
     1     1     2 1   
     2     1    70 1   
     3     1    71 1   
     4     1    72 1   
     5     2     3 1   
     6     2    73 1   
     7     2    74 1   
     8     3     4 1   
     9     3    75 1   
    10     3    76 1   
    11     4     5 1   
    12     4    77 1   
    13     4    78 1   
    14     5     6 1   
    15     5    79 1   
    16     5    80 1   
    17     6     7 2   
    18     6    81 1   
    19     7     8 1   
    20     7    82 1   
    21     8     9 1   
    22     8    83 1   
    23     8    84 1   
    24     9    10 2   
    25     9    85 1   
    26    10    11 1   
    27    10    86 1   
    28    11    12 1   
    29    11    87 1   
    30    11    88 1   
    31    12    13 2   
    32    12    89 1   
    33    13    14 1   
    34    13    90 1   
    35    14    15 1   
    36    14    91 1   
    37    14    92 1   
    38    15    16 2   
    39    15    93 1   
    40    16    17 1   
    41    16    94 1   
    42    17    18 1   
    43    17    95 1   
    44    17    96 1   
    45    18    19 1   
    46    18    97 1   
    47    18    98 1   
    48    19    20 1   
    49    19    99 1   
    50    19   100 1   
    51    20    49 2   
    52    20    69 1   
    53    21    22 1   
    54    21    69 1   
    55    21   101 1   
    56    21   102 1   
    57    22    42 1   
    58    22   103 1   
    59    22   104 1   
    60    23    24 1   
    61    23    42 1   
    62    23    50 2   
    63    24    25 1   
    64    24   105 1   
    65    24   106 1   
    66    25    43 1   
    67    25   107 1   
    68    25   108 1   
    69    26    27 1   
    70    26    43 1   
    71    26    51 2   
    72    27    28 1   
    73    27    65 1   
    74    27   109 1   
    75    28    29 1   
    76    28    30 1   
    77    28    31 1   
    78    29   110 1   
    79    29   111 1   
    80    29   112 1   
    81    30   113 1   
    82    30   114 1   
    83    30   115 1   
    84    31    52 1   
    85    31   116 1   
    86    31   117 1   
    87    32    33 1   
    88    32    58 1   
    89    32   118 1   
    90    32   119 1   
    91    33    34 1   
    92    33    59 1   
    93    33   120 1   
    94    34    35 1   
    95    34    61 1   
    96    34   121 1   
    97    35    36 1   
    98    35    60 1   
    99    35   122 1   
   100    36    44 1   
   101    36    59 1   
   102    36   123 1   
   103    37    44 1   
   104    37    45 2   
   105    37   124 1   
   106    38    39 ar  
   107    38    41 ar  
   108    38    45 1   
   109    39    46 ar  
   110    39    48 1   
   111    40    46 ar  
   112    40    47 ar  
   113    40   125 1   
   114    41    44 1   
   115    41    47 ar  
   116    42   126 1   
   117    43   127 1   
   118    48   128 1   
   119    48   129 1   
   120    52    66 1   
   121    53    66 1   
   122    54    66 1   
   123    55    66 1   
   124    55    67 1   
   125    56    67 1   
   126    57    67 1   
   127    58    67 1   
   128    60   130 1   
   129    61    68 1   
   130    62    68 1   
   131    63    68 1   
   132    64    68 1   
   133    65   131 1   
@<TRIPOS>SUBSTRUCTURE
     1 3IX         1 TEMP              0 ****  ****    0 ROOT
