@<TRIPOS>MOLECULE
3ME
   56    57     1     0     0
SMALL
abcg2


@<TRIPOS>ATOM
      1 P            5.7390    -0.1260    -0.5730 p5         1 3ME       1.262900
      2 OP1          5.6300    -0.6890     0.8450 o          1 3ME      -0.921167
      3 OP2          6.2180    -1.1420    -1.6070 o          1 3ME      -0.921167
      4 O5           4.1220     0.2420    -1.0400 os         1 3ME      -0.551400
      5 C5           3.1930    -0.7920    -1.0850 c3         1 3ME       0.258600
      6 C4           2.4820    -1.0310     0.2380 c5         1 3ME       0.083300
      7 O4           1.7700     0.1490     0.6630 os         1 3ME      -0.398000
      8 C1           0.4370    -0.1700     0.8750 c5         1 3ME       0.349700
      9 N1          -0.4500     0.9670     0.6520 n          1 3ME      -0.289000
     10 C6          -1.3540     1.2790     1.6370 cc         1 3ME       0.050600
     11 C2          -0.4930     1.6100    -0.5690 c          1 3ME       0.613000
     12 O2           0.2380     1.3540    -1.5000 o          1 3ME      -0.497000
     13 N3          -1.4540     2.5880    -0.6550 ns         1 3ME      -0.471500
     14 C8          -2.3970     2.9550     0.2870 c          1 3ME       0.604200
     15 O1          -3.2080     3.8300     0.0460 o          1 3ME      -0.591000
     16 C7          -2.3120     2.2150     1.5300 cd         1 3ME      -0.329400
     17 C5A         -3.2820     2.5180     2.6250 c3         1 3ME       0.002100
     18 C9           0.1450    -1.3820    -0.0000 c5         1 3ME       0.111300
     19 O6          -1.0220    -1.9830     0.4550 os         1 3ME      -0.441000
     20 CB          -1.6490    -2.8570    -0.4550 c3         1 3ME       0.172600
     21 CC          -3.0720    -3.0720    -0.0050 c3         1 3ME       0.154600
     22 OD          -3.7530    -1.8450    -0.0380 os         1 3ME      -0.418000
     23 CE          -5.0820    -1.9420     0.4050 c3         1 3ME       0.166600
     24 CF          -5.7120    -0.5650     0.4570 c3         1 3ME       0.168800
     25 NG          -5.7110     0.1550    -0.8010 n3         1 3ME      -0.686600
     26 CI          -6.4730    -0.5130    -1.8330 c3         1 3ME       0.150100
     27 CJ          -6.1880     1.5070    -0.6060 c3         1 3ME       0.150100
     28 C3           1.4470    -2.1660     0.1620 c5         1 3ME       0.104300
     29 O3           1.3540    -2.9110     1.3510 oh         1 3ME      -0.740000
     30 H5'1         2.4420    -0.5690    -1.8550 h1         1 3ME      -0.008800
     31 H5'2         3.6510    -1.7480    -1.3750 h1         1 3ME      -0.008800
     32 H4           3.2420    -1.2560     0.9920 h1         1 3ME       0.134700
     33 H1           0.2600    -0.4540     1.9210 h2         1 3ME       0.052700
     34 HC6         -1.2470     0.7070     2.5490 h4         1 3ME       0.201000
     35 HN3         -1.4850     3.0770    -1.5420 hn         1 3ME       0.329500
     36 H5A1        -3.2230     3.5620     2.9350 hc         1 3ME       0.027367
     37 H5A2        -4.3090     2.3330     2.3060 hc         1 3ME       0.027367
     38 H5A3        -3.0870     1.8980     3.4980 hc         1 3ME       0.027367
     39 H2           0.0540    -1.0820    -1.0520 h1         1 3ME       0.077700
     40 HB'1        -1.6360    -2.4360    -1.4690 h1         1 3ME       0.033700
     41 HB'2        -1.1400    -3.8270    -0.5000 h1         1 3ME       0.033700
     42 HC'1        -3.5380    -3.8110    -0.6720 h1         1 3ME       0.016700
     43 HC'2        -3.0850    -3.5050     1.0060 h1         1 3ME       0.016700
     44 HE'1        -5.6600    -2.6200    -0.2390 h1         1 3ME       0.008200
     45 HE'2        -5.1300    -2.3670     1.4180 h1         1 3ME       0.008200
     46 HF'1        -6.7330    -0.6940     0.8580 h1         1 3ME       0.033700
     47 HF'2        -5.1680     0.0380     1.1910 h1         1 3ME       0.033700
     48 HI'1        -7.5260    -0.6800    -1.5570 h1         1 3ME       0.027367
     49 HI'2        -6.4610     0.0890    -2.7430 h1         1 3ME       0.027367
     50 HI'3        -6.0350    -1.4800    -2.0830 h1         1 3ME       0.027367
     51 HJ'1        -5.5680     2.0240     0.1290 h1         1 3ME       0.027367
     52 HJ'2        -6.1270     2.0650    -1.5410 h1         1 3ME       0.027367
     53 HJ'3        -7.2310     1.5550    -0.2550 h1         1 3ME       0.027367
     54 H3           1.6420    -2.8190    -0.6990 h1         1 3ME       0.049700
     55 HO3          2.2130    -3.3080     1.5250 ho         1 3ME       0.515000
     56 OXT          6.3690     1.2560    -0.6720 o          1 3ME      -0.921167
@<TRIPOS>BOND
     1     1     2 1   
     2     1     3 1   
     3     1     4 1   
     4     1    56 1   
     5     4     5 1   
     6     5     6 1   
     7     5    30 1   
     8     5    31 1   
     9     6     7 1   
    10     6    28 1   
    11     6    32 1   
    12     7     8 1   
    13     8     9 1   
    14     8    18 1   
    15     8    33 1   
    16     9    10 1   
    17     9    11 1   
    18    10    16 2   
    19    10    34 1   
    20    11    12 2   
    21    11    13 1   
    22    13    14 1   
    23    13    35 1   
    24    14    15 2   
    25    14    16 1   
    26    16    17 1   
    27    17    36 1   
    28    17    37 1   
    29    17    38 1   
    30    18    19 1   
    31    18    28 1   
    32    18    39 1   
    33    19    20 1   
    34    20    21 1   
    35    20    40 1   
    36    20    41 1   
    37    21    22 1   
    38    21    42 1   
    39    21    43 1   
    40    22    23 1   
    41    23    24 1   
    42    23    44 1   
    43    23    45 1   
    44    24    25 1   
    45    24    46 1   
    46    24    47 1   
    47    25    26 1   
    48    25    27 1   
    49    26    48 1   
    50    26    49 1   
    51    26    50 1   
    52    27    51 1   
    53    27    52 1   
    54    27    53 1   
    55    28    29 1   
    56    28    54 1   
    57    29    55 1   
@<TRIPOS>SUBSTRUCTURE
     1 3ME         1 TEMP              0 ****  ****    0 ROOT
