@<TRIPOS>MOLECULE
3MS
   56    59     1     0     0
SMALL
abcg2


@<TRIPOS>ATOM
      1 C4          31.8820    46.5680    49.2400 cc         1 3MS      -0.086000
      2 C5          31.5710    44.6420    58.1440 ca         1 3MS      -0.034000
      3 C6          33.0540    44.7860    48.5160 cd         1 3MS      -0.171000
      4 C7          33.0530    44.7950    56.2020 ca         1 3MS       0.247400
      5 C8          32.6120    44.1330    58.9030 ca         1 3MS       0.216000
      6 C10         32.2960    45.8230    50.3340 cd         1 3MS      -0.226800
      7 C13         32.3330    45.0160    54.0160 ce         1 3MS       0.770500
      8 C15         37.9270    44.3630    50.1260 c3         1 3MS      -0.090600
      9 C17         31.8620    46.1100    61.5040 c3         1 3MS      -0.384100
     10 C20         36.7010    43.6900    50.7370 c3         1 3MS      -0.057700
     11 O30         34.2660    45.1130    61.1690 o          1 3MS      -0.522000
     12 S33         32.9200    44.6820    61.4980 s6         1 3MS       1.190100
     13 O29         32.6720    43.9140    62.7040 o          1 3MS      -0.522000
     14 C3          33.8770    43.9910    58.3290 ca         1 3MS      -0.018000
     15 C9          31.8060    44.9680    56.8170 ca         1 3MS      -0.332500
     16 S32         30.5600    45.7170    55.8580 sy         1 3MS       1.193600
     17 O27         29.2380    45.2350    56.1950 o          1 3MS      -0.529500
     18 O28         30.8020    47.1460    55.8040 o          1 3MS      -0.529500
     19 N23         31.0030    45.0650    54.3850 nu         1 3MS      -0.909300
     20 N21         33.2980    44.9820    54.8580 nf         1 3MS      -0.602100
     21 C2          34.0940    44.3230    57.0080 ca         1 3MS      -0.084000
     22 C12         32.5700    44.9790    52.5690 cc         1 3MS      -0.439800
     23 C11         32.0750    45.9410    51.7270 cd         1 3MS       0.330900
     24 O31         31.3930    47.0200    52.0730 oh         1 3MS      -0.501100
     25 C14         33.3380    43.8520    52.0500 c          1 3MS       0.621200
     26 O26         33.7680    42.9620    52.7670 o          1 3MS      -0.527000
     27 N24         33.5570    43.8080    50.6920 n          1 3MS      -0.319100
     28 N22         33.0090    44.7490    49.8660 na         1 3MS       0.233700
     29 C1          32.3590    45.9120    48.1040 cc         1 3MS      -0.185000
     30 C19         34.3720    42.7730    50.0730 c3         1 3MS       0.100000
     31 C18         35.7460    43.2610    49.6220 c3         1 3MS      -0.095400
     32 C16         37.1230    42.5160    51.6140 c3         1 3MS      -0.090600
     33 H4          31.2950    47.4710    49.2790 ha         1 3MS       0.153000
     34 H5          30.5900    44.7780    58.5840 ha         1 3MS       0.127000
     35 H6          33.5600    44.0430    47.9260 h4         1 3MS       0.163000
     36 H15         37.6490    45.2340    49.5300 hc         1 3MS       0.035700
     37 H15A        38.6200    44.6950    50.9000 hc         1 3MS       0.035700
     38 H15B        38.4650    43.6720    49.4730 hc         1 3MS       0.035700
     39 H17         32.1870    46.7610    62.3150 h1         1 3MS       0.104367
     40 H17A        31.9490    46.6350    60.5560 h1         1 3MS       0.104367
     41 H17B        30.8350    45.7920    61.6700 h1         1 3MS       0.104367
     42 H20         36.1960    44.4320    51.3670 hc         1 3MS       0.057700
     43 HN25        31.4750    43.3330    60.4190 hn         1 3MS       0.490000
     44 H3          34.6870    43.5800    58.9160 ha         1 3MS       0.149000
     45 HN23        30.2680    44.7680    53.7500 hn         1 3MS       0.528000
     46 H2          35.0690    44.1810    56.5620 ha         1 3MS       0.148000
     47 HO31        31.2640    47.1060    53.0260 ho         1 3MS       0.500000
     48 H1          32.2240    46.2080    47.0770 ha         1 3MS       0.146000
     49 H19         34.4600    41.9770    50.8050 h1         1 3MS       0.073700
     50 H19A        33.8160    42.3520    49.2320 h1         1 3MS       0.073700
     51 H18         35.6330    44.0860    48.9130 hc         1 3MS       0.048200
     52 H18A        36.2020    42.4440    49.0540 hc         1 3MS       0.048200
     53 H16         37.6350    41.7560    51.0190 hc         1 3MS       0.035700
     54 H16A        37.8120    42.8440    52.3950 hc         1 3MS       0.035700
     55 H16B        36.2760    42.0410    52.1080 hc         1 3MS       0.035700
     56 N25         32.3950    43.7220    60.2380 nu         1 3MS      -0.877100
@<TRIPOS>BOND
     1     1     6 2   
     2     1    29 1   
     3     1    33 1   
     4     2     5 ar  
     5     2    15 ar  
     6     2    34 1   
     7     3    28 1   
     8     3    29 2   
     9     3    35 1   
    10     4    15 ar  
    11     4    20 1   
    12     4    21 ar  
    13     5    14 ar  
    14     5    56 1   
    15     6    23 1   
    16     6    28 1   
    17     7    19 1   
    18     7    20 2   
    19     7    22 1   
    20     8    10 1   
    21     8    36 1   
    22     8    37 1   
    23     8    38 1   
    24     9    12 1   
    25     9    39 1   
    26     9    40 1   
    27     9    41 1   
    28    10    31 1   
    29    10    32 1   
    30    10    42 1   
    31    11    12 2   
    32    12    13 2   
    33    12    56 1   
    34    14    21 ar  
    35    14    44 1   
    36    15    16 1   
    37    16    17 2   
    38    16    18 2   
    39    16    19 1   
    40    19    45 1   
    41    21    46 1   
    42    22    23 2   
    43    22    25 1   
    44    23    24 1   
    45    24    47 1   
    46    25    26 2   
    47    25    27 1   
    48    27    28 1   
    49    27    30 1   
    50    29    48 1   
    51    30    31 1   
    52    30    49 1   
    53    30    50 1   
    54    31    51 1   
    55    31    52 1   
    56    32    53 1   
    57    32    54 1   
    58    32    55 1   
    59    43    56 1   
@<TRIPOS>SUBSTRUCTURE
     1 3MS         1 TEMP              0 ****  ****    0 ROOT
