@<TRIPOS>MOLECULE
3R3
   31    31     1     0     0
SMALL
abcg2


@<TRIPOS>ATOM
      1 O3B         -8.1350   -18.9650    -1.2380 o          1 3R3      -0.915833
      2 PB          -7.8150   -20.2810    -0.5460 p5         1 3R3       1.338800
      3 O1B         -8.3700   -20.4360     0.8600 o          1 3R3      -0.915833
      4 O2B         -6.3010   -20.6620    -0.5990 o          1 3R3      -0.915833
      5 N3A         -8.5880   -21.4900    -1.5570 n7         1 3R3      -1.001600
      6 PA          -8.0220   -22.9820    -2.0670 p5         1 3R3       1.442700
      7 O1A         -9.1190   -23.6360    -2.8650 o          1 3R3      -0.899500
      8 O2A         -7.3610   -23.7260    -0.9380 o          1 3R3      -0.899500
      9 O1          -6.8360   -22.6040    -3.1970 os         1 3R3      -0.621400
     10 C1          -5.4910   -22.9130    -3.0260 c5         1 3R3       0.411300
     11 O4          -5.0360   -23.7490    -4.0570 os         1 3R3      -0.463000
     12 C4          -4.7610   -22.9570    -5.2120 c5         1 3R3       0.145300
     13 C3          -4.3830   -21.5620    -4.6910 c5         1 3R3       0.113300
     14 O3          -5.1960   -20.5440    -5.2110 oh         1 3R3      -0.781000
     15 C2          -4.5890   -21.6710    -3.1600 c5         1 3R3       0.160300
     16 O2          -5.0720   -20.4730    -2.6750 oh         1 3R3      -0.925000
     17 C5          -3.6650   -23.5970    -6.0430 c3         1 3R3       0.262600
     18 O5          -4.1030   -24.7830    -6.6220 os         1 3R3      -0.585400
     19 P           -2.9440   -25.7970    -7.3950 p5         1 3R3       1.304900
     20 O1P         -2.2150   -26.4890    -6.2470 o          1 3R3      -0.950500
     21 O2P         -3.8580   -26.6970    -8.2170 o          1 3R3      -0.950500
     22 O3P         -2.0690   -24.8440    -8.2080 o          1 3R3      -0.950500
     23 H3A         -9.3480   -21.1290    -2.1160 hn         1 3R3       0.407000
     24 H1          -5.3390   -23.4490    -2.0860 h2         1 3R3       0.069700
     25 H4          -5.6650   -22.8660    -5.8310 h1         1 3R3       0.045700
     26 H3          -3.3280   -21.3460    -4.9160 h1         1 3R3      -0.012300
     27 HO3         -5.4850   -20.0670    -4.4090 ho         1 3R3       0.542000
     28 H2          -3.6230   -21.9490    -2.7080 h1         1 3R3      -0.034300
     29 HO2         -5.6460   -20.5770    -1.7670 ho         1 3R3       0.639000
     30 H51         -2.7820   -23.7370    -5.3970 h1         1 3R3      -0.029800
     31 H52         -3.3690   -22.8550    -6.8010 h1         1 3R3      -0.029800
@<TRIPOS>BOND
     1     1     2 1   
     2     2     3 1   
     3     2     4 1   
     4     2     5 1   
     5     5     6 1   
     6     5    23 1   
     7     6     7 1   
     8     6     8 1   
     9     6     9 1   
    10     9    10 1   
    11    10    11 1   
    12    10    15 1   
    13    10    24 1   
    14    11    12 1   
    15    12    13 1   
    16    12    17 1   
    17    12    25 1   
    18    13    14 1   
    19    13    15 1   
    20    13    26 1   
    21    14    27 1   
    22    15    16 1   
    23    15    28 1   
    24    16    29 1   
    25    17    18 1   
    26    17    30 1   
    27    17    31 1   
    28    18    19 1   
    29    19    20 1   
    30    19    21 1   
    31    19    22 1   
@<TRIPOS>SUBSTRUCTURE
     1 3R3         1 TEMP              0 ****  ****    0 ROOT
