@<TRIPOS>MOLECULE
J7D
   29    28     1     0     0
SMALL
abcg2


@<TRIPOS>ATOM
      1 O01          0.4500   -15.3030    -0.4740 o          1 J7D      -0.928833
      2 P            1.4230   -14.2300    -0.9340 p5         1 J7D       1.273900
      3 O02          2.6580   -14.7550    -1.6580 o          1 J7D      -0.928833
      4 O            0.7680   -13.0470    -1.6420 o          1 J7D      -0.928833
      5 O03          1.9840   -13.6290     0.5340 os         1 J7D      -0.581400
      6 C01          2.9220   -12.5720     0.4950 c3         1 J7D       0.243600
      7 C02          2.9870   -11.8980     1.8530 c3         1 J7D       0.117300
      8 O04          3.7030   -12.7710     2.7410 oh         1 J7D      -0.710000
      9 C03          3.6890   -10.5330     1.8410 c3         1 J7D       0.111300
     10 C04          3.0390    -9.5040     0.9090 c3         1 J7D       0.166300
     11 C05          3.7120    -8.1450     1.0750 c3         1 J7D       0.130000
     12 N            3.3380    -7.1750     0.0700 n          1 J7D      -0.274300
     13 O06          2.1660    -6.4640     0.3240 oh         1 J7D      -0.442100
     14 C            3.9620    -6.9110    -1.0750 c          1 J7D       0.581900
     15 O07          3.5330    -6.0830    -1.8870 o          1 J7D      -0.658100
     16 O19          1.6530    -9.3580     1.2070 oh         1 J7D      -0.741000
     17 O23          5.0530   -10.6690     1.4460 oh         1 J7D      -0.688000
     18 H3           3.9150   -12.9420     0.2240 h1         1 J7D       0.016700
     19 H4           2.6260   -11.8440    -0.2620 h1         1 J7D       0.016700
     20 H01          1.9690   -11.7600     2.2210 h1         1 J7D       0.052700
     21 H5           3.5220   -12.5050     3.6480 ho         1 J7D       0.458000
     22 H9           3.6390   -10.1390     2.8650 h1         1 J7D      -0.000300
     23 H16          3.1720    -9.8210    -0.1270 h1         1 J7D       0.078700
     24 H6           4.7890    -8.2740     1.0060 h1         1 J7D       0.063200
     25 H7           3.4790    -7.7250     2.0540 h1         1 J7D       0.063200
     26 H8           2.0870    -5.9060    -0.4740 ho         1 J7D       0.461000
     27 H10          4.8780    -7.4940    -1.2140 h5         1 J7D       0.039200
     28 H11          1.1570   -10.0500     0.7600 ho         1 J7D       0.549000
     29 H12          5.4090   -11.4250     1.9280 ho         1 J7D       0.460000
@<TRIPOS>BOND
     1     1     2 1   
     2     2     3 1   
     3     2     4 1   
     4     2     5 1   
     5     5     6 1   
     6     6     7 1   
     7     6    18 1   
     8     6    19 1   
     9     7     8 1   
    10     7     9 1   
    11     7    20 1   
    12     8    21 1   
    13     9    10 1   
    14     9    17 1   
    15     9    22 1   
    16    10    11 1   
    17    10    16 1   
    18    10    23 1   
    19    11    12 1   
    20    11    24 1   
    21    11    25 1   
    22    12    13 1   
    23    12    14 1   
    24    13    26 1   
    25    14    15 2   
    26    14    27 1   
    27    16    28 1   
    28    17    29 1   
@<TRIPOS>SUBSTRUCTURE
     1 J7D         1 TEMP              0 ****  ****    0 ROOT
