@<TRIPOS>MOLECULE
JLN
   35    36     1     0     0
SMALL
abcg2


@<TRIPOS>ATOM
      1 P           74.6320   124.5050    -5.9180 p5         1 JLN       1.267900
      2 O3P         75.4900   123.6480    -4.9890 o          1 JLN      -0.924500
      3 O1P         74.6730   126.0040    -5.6540 o          1 JLN      -0.924500
      4 O5          73.0100   124.1480    -5.4590 os         1 JLN      -0.556400
      5 O2P         74.7110   124.0960    -7.3860 o          1 JLN      -0.924500
      6 C5          72.6060   122.8200    -5.5340 c3         1 JLN       0.258600
      7 C4          72.1210   122.3240    -4.1840 c5         1 JLN       0.131300
      8 O4          70.9730   123.0810    -3.7530 os         1 JLN      -0.420000
      9 C1          69.8650   122.2480    -3.6190 c5         1 JLN       0.312300
     10 N1          68.6770   122.9360    -4.0670 na         1 JLN      -0.191500
     11 C8          67.4270   122.8600    -3.5030 cc         1 JLN      -0.115400
     12 N5          67.2150   122.1700    -2.3170 ns         1 JLN      -0.376100
     13 C7          66.6010   122.7590    -1.2580 c          1 JLN       0.652900
     14 O7          66.1940   122.1610    -0.2860 o          1 JLN      -0.670100
     15 O6B         64.5380   124.4010    -5.1060 o          1 JLN      -0.732500
     16 C9          66.5880   123.5780    -4.3220 cd         1 JLN       0.202500
     17 N3          67.3200   124.0880    -5.3620 nd         1 JLN      -0.671000
     18 C2          68.5450   123.6790    -5.1910 cc         1 JLN       0.397400
     19 C10         70.1780   120.9990    -4.4410 c5         1 JLN       0.064300
     20 O2          69.4100   119.9240    -3.9790 oh         1 JLN      -0.726000
     21 C3          71.6790   120.8630    -4.1960 c5         1 JLN       0.106300
     22 O6A         64.5640   123.2670    -3.1820 o          1 JLN      -0.732500
     23 O3          71.9270   120.2900    -2.9360 oh         1 JLN      -0.716000
     24 H5'1        71.7960   122.7010    -6.2720 h1         1 JLN      -0.012300
     25 H5'2        73.4090   122.1430    -5.8540 h1         1 JLN      -0.012300
     26 H4          72.9220   122.4730    -3.4520 h1         1 JLN       0.108700
     27 H3          72.1800   120.3010    -4.9960 h1         1 JLN       0.049700
     28 H1          69.6860   121.9660    -2.5740 h2         1 JLN       0.067700
     29 H2          69.9990   121.2000    -5.5030 h1         1 JLN       0.067700
     30 H6          69.3770   123.8950    -5.8450 h5         1 JLN       0.073100
     31 H5          67.2480   121.1580    -2.3320 hn         1 JLN       0.297500
     32 H7          66.5590   123.8520    -1.3560 h5         1 JLN       0.031200
     33 HA          69.2080   119.3350    -4.7120 ho         1 JLN       0.494000
     34 H3O         71.3220   119.5460    -2.8290 ho         1 JLN       0.487000
     35 C6          65.0980   123.7730    -4.1920 c          1 JLN       0.635500
@<TRIPOS>BOND
     1     1     2 1   
     2     1     3 1   
     3     1     4 1   
     4     1     5 1   
     5     4     6 1   
     6     6     7 1   
     7     6    24 1   
     8     6    25 1   
     9     7     8 1   
    10     7    21 1   
    11     7    26 1   
    12     8     9 1   
    13     9    10 1   
    14     9    19 1   
    15     9    28 1   
    16    10    11 1   
    17    10    18 1   
    18    11    12 1   
    19    11    16 2   
    20    12    13 1   
    21    12    31 1   
    22    13    14 2   
    23    13    32 1   
    24    15    35 1   
    25    16    17 1   
    26    16    35 1   
    27    17    18 2   
    28    18    30 1   
    29    19    20 1   
    30    19    21 1   
    31    19    29 1   
    32    20    33 1   
    33    21    23 1   
    34    21    27 1   
    35    22    35 1   
    36    23    34 1   
@<TRIPOS>SUBSTRUCTURE
     1 JLN         1 TEMP              0 ****  ****    0 ROOT
