@<TRIPOS>MOLECULE
JMH
   36    37     1     0     0
SMALL
abcg2


@<TRIPOS>ATOM
      1 N1         226.2920   348.5840   210.1240 n          1 JMH      -0.325000
      2 C2         225.5280   347.4530   210.2850 c          1 JMH       0.608000
      3 C5         228.0950   347.3760   209.1880 cc         1 JMH      -0.395600
      4 C1         225.6980   349.8560   210.5840 c5         1 JMH       0.348700
      5 C7         225.8850   350.0650   212.0870 c5         1 JMH       0.080300
      6 C3         227.1750   350.8930   212.1140 c5         1 JMH       0.089300
      7 C4         227.3620   346.1380   209.2880 cc         1 JMH       0.562200
      8 C9         227.0110   351.7650   210.8750 c5         1 JMH       0.150300
      9 C8         228.2930   352.2970   210.2680 c3         1 JMH       0.252600
     10 C6         227.5540   348.5270   209.5990 cd         1 JMH       0.013600
     11 N3         226.0830   346.2660   209.8520 n          1 JMH      -0.378300
     12 N4         227.8760   345.0390   208.8920 n2         1 JMH      -0.860100
     13 O2         224.4200   347.5110   210.7890 o          1 JMH      -0.626000
     14 O1         224.7980   350.8170   212.5570 oh         1 JMH      -0.722000
     15 O3         227.3040   351.6950   213.2580 oh         1 JMH      -0.719000
     16 O4         226.3200   350.9260   209.9450 os         1 JMH      -0.408000
     17 O5         229.2000   351.2730   210.0220 os         1 JMH      -0.596400
     18 OP1        230.6960   349.8770   208.5920 o          1 JMH      -0.913500
     19 OP2        231.0710   352.4260   208.6880 o          1 JMH      -0.913500
     20 P          230.0880   351.2730   208.5350 p5         1 JMH       1.256900
     21 OP3        229.0300   351.4770   207.4540 o          1 JMH      -0.913500
     22 H1         229.0930   347.3640   208.7770 ha         1 JMH       0.269000
     23 H2         224.6390   349.8240   210.3200 h2         1 JMH       0.090700
     24 H3         225.9820   349.1150   212.6260 h1         1 JMH       0.047700
     25 H4         228.0370   350.2280   211.9880 h1         1 JMH       0.101700
     26 H6         226.3760   352.6260   211.1250 h1         1 JMH       0.025700
     27 H7         228.6910   353.0370   210.9780 h1         1 JMH       0.014200
     28 H8         228.0320   352.8540   209.3590 h1         1 JMH       0.014200
     29 H9         228.0990   349.4570   209.5410 h4         1 JMH       0.312000
     30 H10        224.3370   345.2910   210.4470 h1         1 JMH       0.037033
     31 H11        225.1270   344.5840   209.0380 h1         1 JMH       0.037033
     32 H12        225.8110   344.3460   210.6590 h1         1 JMH       0.037033
     33 H13        227.2700   344.2370   209.0150 hn         1 JMH       0.348400
     34 H16        225.1160   351.3560   213.2920 ho         1 JMH       0.507000
     35 H17        227.7230   351.1800   213.9550 ho         1 JMH       0.492000
     36 C31        225.2970   345.0540   210.0070 c3         1 JMH       0.077300
@<TRIPOS>BOND
     1     1     2 1   
     2     1     4 1   
     3     1    10 1   
     4     2    11 1   
     5     2    13 2   
     6     3     7 1   
     7     3    10 2   
     8     3    22 1   
     9     4     5 1   
    10     4    16 1   
    11     4    23 1   
    12     5     6 1   
    13     5    14 1   
    14     5    24 1   
    15     6     8 1   
    16     6    15 1   
    17     6    25 1   
    18     7    11 1   
    19     7    12 2   
    20     8     9 1   
    21     8    16 1   
    22     8    26 1   
    23     9    17 1   
    24     9    27 1   
    25     9    28 1   
    26    10    29 1   
    27    11    36 1   
    28    12    33 1   
    29    14    34 1   
    30    15    35 1   
    31    17    20 1   
    32    18    20 1   
    33    19    20 1   
    34    20    21 1   
    35    30    36 1   
    36    31    36 1   
    37    32    36 1   
@<TRIPOS>SUBSTRUCTURE
     1 JMH         1 TEMP              0 ****  ****    0 ROOT
