@<TRIPOS>MOLECULE
JQS
   36    37     1     0     0
SMALL
abcg2


@<TRIPOS>ATOM
      1 C2          13.7730    24.1640    54.8530 cc         1 JQS       0.160500
      2 C3          13.9270    22.0450    55.1480 cd         1 JQS       0.364400
      3 C5          16.4620    20.4190    55.0170 c5         1 JQS       0.079300
      4 O3          16.3160    17.9940    54.6820 oh         1 JQS      -0.711000
      5 C1          13.0630    25.4850    54.8920 c          1 JQS       0.652500
      6 O1          11.8880    25.4890    55.2810 o          1 JQS      -0.730000
      7 O2          17.8490    20.2110    54.9690 oh         1 JQS      -0.724000
      8 C4          16.1300    21.5580    54.0470 c5         1 JQS       0.308300
      9 C10         16.6210    25.4400    53.8300 c2         1 JQS       0.640100
     10 C6          15.7230    19.2300    54.3890 c5         1 JQS       0.078300
     11 C7          15.8280    19.5390    52.9000 c5         1 JQS       0.154300
     12 C8          14.7130    18.9250    52.0820 c3         1 JQS       0.260600
     13 C9          14.9910    23.7850    54.2960 cd         1 JQS       0.094400
     14 N1          13.1460    23.0530    55.3700 nc         1 JQS      -0.656000
     15 N2          15.0590    22.4150    54.4980 na         1 JQS      -0.191500
     16 N3          16.0350    24.3210    53.5860 nf         1 JQS      -0.659100
     17 N4          16.3130    26.3640    54.7470 nv         1 JQS      -1.095200
     18 O4          14.9480    19.1080    50.7240 os         1 JQS      -0.570400
     19 O5          13.1070    17.4400    50.0780 o          1 JQS      -0.926167
     20 O6          12.6550    19.9620    49.9410 o          1 JQS      -0.926167
     21 O7          14.3130    18.8720    48.3060 o          1 JQS      -0.926167
     22 O8          15.7880    20.9590    52.8190 os         1 JQS      -0.392000
     23 O9          13.7110    26.5030    54.5220 o          1 JQS      -0.730000
     24 P1          13.6220    18.8160    49.6620 p5         1 JQS       1.274900
     25 H1          13.7260    21.0270    55.4470 h5         1 JQS       0.024100
     26 H2          16.1290    20.6360    56.0400 h1         1 JQS       0.035700
     27 H3          15.9710    17.6740    55.5230 ho         1 JQS       0.477000
     28 H5          18.0020    19.2690    55.1180 ho         1 JQS       0.502000
     29 H6          16.9980    22.2060    53.9170 h2         1 JQS       0.093700
     30 H7          17.5120    25.6420    53.2380 h5         1 JQS      -0.028200
     31 H8          14.6690    19.2440    54.6940 h1         1 JQS       0.058700
     32 H9          16.7950    19.1710    52.5270 h1         1 JQS       0.050700
     33 H10         13.7640    19.3720    52.4150 h1         1 JQS       0.000200
     34 H11         14.6630    17.8590    52.3540 h1         1 JQS       0.000200
     35 H12         16.8490    27.2160    54.7000 hn         1 JQS       0.476500
     36 H13         15.2890    26.4820    54.8980 hn         1 JQS       0.476500
@<TRIPOS>BOND
     1     1     5 1   
     2     1    13 2   
     3     1    14 1   
     4     2    14 2   
     5     2    15 1   
     6     2    25 1   
     7     3     7 1   
     8     3     8 1   
     9     3    10 1   
    10     3    26 1   
    11     4    10 1   
    12     4    27 1   
    13     5     6 1   
    14     5    23 1   
    15     7    28 1   
    16     8    15 1   
    17     8    22 1   
    18     8    29 1   
    19     9    16 2   
    20     9    17 1   
    21     9    30 1   
    22    10    11 1   
    23    10    31 1   
    24    11    12 1   
    25    11    22 1   
    26    11    32 1   
    27    12    18 1   
    28    12    33 1   
    29    12    34 1   
    30    13    15 1   
    31    13    16 1   
    32    17    35 1   
    33    17    36 1   
    34    18    24 1   
    35    19    24 1   
    36    20    24 1   
    37    21    24 1   
@<TRIPOS>SUBSTRUCTURE
     1 JQS         1 TEMP              0 ****  ****    0 ROOT
