@<TRIPOS>MOLECULE
JW5
   36    37     1     0     0
SMALL
abcg2


@<TRIPOS>ATOM
      1 O2          15.5110    10.5430    38.9850 o          1 JW5      -0.479000
      2 C2          15.7480    10.2100    37.8460 c          1 JW5       0.607000
      3 N3          17.0230     9.8920    37.4550 ns         1 JW5      -0.472500
      4 C4          17.4450     9.4460    36.2190 c          1 JW5       0.600200
      5 O4          18.6180     9.2010    36.0060 o          1 JW5      -0.577000
      6 C5          16.3680     9.3130    35.2720 cc         1 JW5      -0.418200
      7 C6          15.1050     9.6480    35.5960 cd         1 JW5       0.138400
      8 C7          14.0270     9.4790    34.5580 c3         1 JW5       0.189800
      9 O7          13.6040    10.7520    34.1330 oh         1 JW5      -0.635000
     10 N1          14.7800    10.1210    36.8550 n          1 JW5      -0.292000
     11 C1          13.4180    10.5330    37.1850 c5         1 JW5       0.315700
     12 O8          13.4110    11.8480    37.6520 os         1 JW5      -0.452000
     13 C8          12.6880     9.6950    38.2380 c5         1 JW5       0.079300
     14 O6          12.2440     8.4630    37.7560 oh         1 JW5      -0.718000
     15 C3          11.5910    10.6850    38.6520 c5         1 JW5       0.113300
     16 O3          10.5270    10.6520    37.7220 oh         1 JW5      -0.745000
     17 C9          12.3160    12.0280    38.5590 c5         1 JW5       0.145300
     18 C10         12.8220    12.5300    39.9050 c3         1 JW5       0.240600
     19 O5          11.7100    12.8420    40.6800 os         1 JW5      -0.591400
     20 P           11.9640    13.3820    42.2970 p5         1 JW5       1.270900
     21 O1P         12.8030    14.6470    42.1450 o          1 JW5      -0.919833
     22 O3P         10.5230    13.6020    42.7380 o          1 JW5      -0.919833
     23 O2P         12.6840    12.2260    42.9840 o          1 JW5      -0.919833
     24 HN3         17.7260     9.9830    38.1800 hn         1 JW5       0.337500
     25 H5          16.5950     8.9460    34.2820 ha         1 JW5       0.200000
     26 H71         14.4540     8.9000    33.7340 h1         1 JW5       0.034200
     27 H72         13.2090     8.8790    34.9710 h1         1 JW5       0.034200
     28 HO7         12.7770    10.6490    33.6520 ho         1 JW5       0.443000
     29 H1          12.8460    10.4740    36.2590 h2         1 JW5       0.039700
     30 H2          13.3330     9.4890    39.0930 h1         1 JW5       0.130700
     31 HO'2        11.5520     8.6250    37.1030 ho         1 JW5       0.487000
     32 H3          11.2310    10.5000    39.6670 h1         1 JW5       0.122700
     33 H3T          9.8540    10.0430    38.0420 ho         1 JW5       0.492000
     34 H4          11.6370    12.7800    38.1410 h1         1 JW5       0.079700
     35 H5'1        13.4550    11.7610    40.3700 h1         1 JW5       0.018700
     36 H5'2        13.4700    13.4010    39.7290 h1         1 JW5       0.018700
@<TRIPOS>BOND
     1     1     2 2   
     2     2     3 1   
     3     2    10 1   
     4     3     4 1   
     5     3    24 1   
     6     4     5 2   
     7     4     6 1   
     8     6     7 2   
     9     6    25 1   
    10     7     8 1   
    11     7    10 1   
    12     8     9 1   
    13     8    26 1   
    14     8    27 1   
    15     9    28 1   
    16    10    11 1   
    17    11    12 1   
    18    11    13 1   
    19    11    29 1   
    20    12    17 1   
    21    13    14 1   
    22    13    15 1   
    23    13    30 1   
    24    14    31 1   
    25    15    16 1   
    26    15    17 1   
    27    15    32 1   
    28    16    33 1   
    29    17    18 1   
    30    17    34 1   
    31    18    19 1   
    32    18    35 1   
    33    18    36 1   
    34    19    20 1   
    35    20    21 1   
    36    20    22 1   
    37    20    23 1   
@<TRIPOS>SUBSTRUCTURE
     1 JW5         1 TEMP              0 ****  ****    0 ROOT
