@<TRIPOS>MOLECULE
JYP
   62    65     1     0     0
SMALL
abcg2


@<TRIPOS>ATOM
      1 C1         179.4890   140.3360    85.9150 ca         1 JYP       0.102900
      2 N1         180.2340   141.4190    86.1200 nb         1 JYP      -0.108000
      3 C2         180.5310   141.5850    87.4140 ca         1 JYP       0.120500
      4 C3         180.1310   140.7530    88.4590 ca         1 JYP      -0.086600
      5 C4         179.3450   139.6380    88.1150 ca         1 JYP       0.390900
      6 N2         179.0370   139.4560    86.8160 nb         1 JYP      -0.353000
      7 N3         178.8810   138.7630    89.0250 nv         1 JYP      -1.105900
      8 N4         180.6250   141.2190    89.6660 nc         1 JYP      -0.658100
      9 C5         181.2960   142.3000    89.3520 cd         1 JYP       0.469700
     10 N5         181.2750   142.5820    88.0040 na         1 JYP      -0.198300
     11 C6         181.9600   143.6590    87.3290 c5         1 JYP       0.212300
     12 C7         181.6180   145.0720    87.8630 c5         1 JYP       0.238300
     13 C8         182.9900   145.7820    87.9330 c5         1 JYP       0.111300
     14 C9         183.9580   144.7780    87.3090 c5         1 JYP       0.154300
     15 O1         183.3570   143.4850    87.5260 os         1 JYP      -0.520000
     16 C10        185.3590   144.7990    87.8600 c3         1 JYP       0.153600
     17 O2         186.1960   144.0070    87.0120 oh         1 JYP      -0.756000
     18 O3         183.3400   146.0380    89.3030 os         1 JYP      -0.492000
     19 C11        183.3650   147.3890    89.6400 c6         1 JYP       0.377300
     20 C12        183.9330   147.5520    91.0420 c6         1 JYP       0.151300
     21 C13        183.4280   148.8870    91.6530 c6         1 JYP       0.220300
     22 C14        183.0760   149.9040    90.5700 c6         1 JYP       0.211300
     23 C15        181.9530   149.3140    89.6970 c6         1 JYP       0.139300
     24 O4         182.0270   147.8780    89.6260 os         1 JYP      -0.522000
     25 C16        180.5600   149.6070    90.2270 c3         1 JYP       0.157600
     26 O5         180.2920   150.9990    90.0560 oh         1 JYP      -0.678000
     27 O6         184.2300   150.2040    89.8050 os         1 JYP      -0.581400
     28 P1         184.5100   151.7820    89.2890 p5         1 JYP       1.302900
     29 O7         184.4880   152.6410    90.5510 o          1 JYP      -0.951833
     30 O8         183.3870   152.1150    88.3100 o          1 JYP      -0.951833
     31 O9         185.8820   151.6400    88.6430 o          1 JYP      -0.951833
     32 O10        184.4040   149.3970    92.5380 os         1 JYP      -0.566400
     33 P2         184.0280   149.4230    94.1940 p5         1 JYP       1.309900
     34 O11        183.8250   147.9620    94.5820 o          1 JYP      -0.956167
     35 O12        182.7610   150.2640    94.2950 o          1 JYP      -0.956167
     36 O13        185.2750   150.0700    94.7710 o          1 JYP      -0.956167
     37 O14        185.3520   147.5000    91.0100 oh         1 JYP      -0.784000
     38 O15        180.5900   145.6940    87.1350 os         1 JYP      -0.556400
     39 P3         180.8450   146.4110    85.6140 p5         1 JYP       1.258900
     40 O16        181.4610   147.7750    85.9050 o          1 JYP      -0.919167
     41 O17        181.7830   145.4600    84.8810 o          1 JYP      -0.919167
     42 O18        179.4270   146.4690    85.0740 o          1 JYP      -0.919167
     43 H1         179.2090   140.1360    84.8850 h5         1 JYP       0.013100
     44 H2         178.4130   137.9280    88.7140 hn         1 JYP       0.471500
     45 H3         179.1870   138.8180    89.9810 hn         1 JYP       0.471500
     46 H4         181.8310   142.9280    90.0470 h5         1 JYP       0.104800
     47 H5         181.6980   143.6090    86.2730 h2         1 JYP       0.150700
     48 H6         181.2610   144.9860    88.8900 h1         1 JYP       0.030700
     49 H7         182.9660   146.7150    87.3750 h1         1 JYP       0.161700
     50 H8         183.9860   144.9680    86.2320 h1         1 JYP       0.101700
     51 H9         185.7030   145.8380    87.8850 h1         1 JYP       0.059200
     52 H10        185.3630   144.4130    88.8820 h1         1 JYP       0.059200
     53 H11        187.0850   144.0060    87.3860 ho         1 JYP       0.456000
     54 H12        183.9660   147.9540    88.9190 h2         1 JYP       0.088700
     55 H13        183.5530   146.7240    91.6510 h1         1 JYP       0.005700
     56 H14        182.5090   148.6710    92.2000 h1         1 JYP       0.008700
     57 H15        182.7050   150.8100    91.0550 h1         1 JYP       0.073700
     58 H16        182.0540   149.7330    88.6920 h1         1 JYP       0.116700
     59 H17        179.8400   149.0010    89.6660 h1         1 JYP       0.005200
     60 H18        180.4940   149.3260    91.2830 h1         1 JYP       0.005200
     61 H19        179.4920   151.2140    90.5490 ho         1 JYP       0.427000
     62 H24        185.6260   148.1740    91.6570 ho         1 JYP       0.554000
@<TRIPOS>BOND
     1     1     2 ar  
     2     1     6 ar  
     3     1    43 1   
     4     2     3 ar  
     5     3     4 ar  
     6     3    10 1   
     7     4     5 ar  
     8     4     8 1   
     9     5     6 ar  
    10     5     7 1   
    11     7    44 1   
    12     7    45 1   
    13     8     9 2   
    14     9    10 1   
    15     9    46 1   
    16    10    11 1   
    17    11    12 1   
    18    11    15 1   
    19    11    47 1   
    20    12    13 1   
    21    12    38 1   
    22    12    48 1   
    23    13    14 1   
    24    13    18 1   
    25    13    49 1   
    26    14    15 1   
    27    14    16 1   
    28    14    50 1   
    29    16    17 1   
    30    16    51 1   
    31    16    52 1   
    32    17    53 1   
    33    18    19 1   
    34    19    20 1   
    35    19    24 1   
    36    19    54 1   
    37    20    21 1   
    38    20    37 1   
    39    20    55 1   
    40    21    22 1   
    41    21    32 1   
    42    21    56 1   
    43    22    23 1   
    44    22    27 1   
    45    22    57 1   
    46    23    24 1   
    47    23    25 1   
    48    23    58 1   
    49    25    26 1   
    50    25    59 1   
    51    25    60 1   
    52    26    61 1   
    53    27    28 1   
    54    28    29 1   
    55    28    30 1   
    56    28    31 1   
    57    32    33 1   
    58    33    34 1   
    59    33    35 1   
    60    33    36 1   
    61    37    62 1   
    62    38    39 1   
    63    39    40 1   
    64    39    41 1   
    65    39    42 1   
@<TRIPOS>SUBSTRUCTURE
     1 JYP         1 TEMP              0 ****  ****    0 ROOT
