@<TRIPOS>MOLECULE
Y2L
   40    42     1     0     0
SMALL
abcg2


@<TRIPOS>ATOM
      1 C10        -12.4500     4.9930    45.9310 ca         1 Y2L      -0.213000
      2 C11        -12.8370     6.1800    45.3090 ca         1 Y2L       0.206100
      3 O12        -13.4920     7.1700    45.9340 os         1 Y2L      -0.336100
      4 C13        -13.8050     7.0370    47.3110 c3         1 Y2L       0.152300
      5 C16        -14.8040    10.4340    48.1960 c          1 Y2L       0.562000
      6 C23        -10.0750     9.6210    43.5320 cc         1 Y2L       0.500300
      7 C26         -9.0180    10.3690    44.2520 c3         1 Y2L      -0.111400
      8 C1         -12.9060     7.6560    43.2450 c3         1 Y2L       0.151900
      9 C2         -12.5430     6.3820    43.9560 ca         1 Y2L      -0.165300
     10 C3         -11.8460     5.4070    43.2610 ca         1 Y2L      -0.001000
     11 C4         -11.4340     4.2380    43.8830 ca         1 Y2L      -0.240300
     12 C5         -10.6630     3.1960    43.1420 c3         1 Y2L       0.364300
     13 F6         -11.3890     2.0880    42.9260 f          1 Y2L      -0.111667
     14 F7         -10.2430     3.6230    41.9470 f          1 Y2L      -0.111667
     15 F8          -9.5760     2.8090    43.8250 f          1 Y2L      -0.111667
     16 C9         -11.7490     4.0350    45.2210 ca         1 Y2L      -0.001000
     17 C14        -14.4740     8.2910    47.7260 cc         1 Y2L       0.345900
     18 N15        -13.8700     9.5150    47.7590 n          1 Y2L      -0.317300
     19 N17        -15.9020     9.6580    48.4030 ns         1 Y2L      -0.367400
     20 N18        -15.7020     8.3540    48.1120 n2         1 Y2L      -0.467300
     21 N21        -11.7330     8.5010    43.0980 na         1 Y2L       0.241600
     22 N22        -11.0930     9.0200    44.1150 nd         1 Y2L      -0.536800
     23 N24        -10.1190     9.4530    42.1990 nc         1 Y2L      -0.383000
     24 N25        -11.1700     8.7410    41.9510 nd         1 Y2L      -0.179800
     25 H31        -12.6760     4.8020    46.9700 ha         1 Y2L       0.128000
     26 H33        -14.4880     6.2020    47.4900 h1         1 Y2L       0.067700
     27 H32        -12.8970     6.8730    47.9020 h1         1 Y2L       0.067700
     28 H35        -12.2610    10.8070    47.8320 h1         1 Y2L       0.060367
     29 H37        -11.8250     9.0990    47.7850 h1         1 Y2L       0.060367
     30 H36        -12.3930     9.9050    46.3130 h1         1 Y2L       0.060367
     31 H40         -9.2450    10.4220    45.3140 hc         1 Y2L       0.059367
     32 H38         -8.0500     9.8820    44.1320 hc         1 Y2L       0.059367
     33 H39         -8.9270    11.3830    43.8660 hc         1 Y2L       0.059367
     34 H28        -13.2600     7.4500    42.2360 h1         1 Y2L       0.092200
     35 H27        -13.6760     8.2260    43.7590 h1         1 Y2L       0.092200
     36 H29        -11.6200     5.5850    42.2170 ha         1 Y2L       0.143000
     37 H30        -11.4510     3.1290    45.7320 ha         1 Y2L       0.133000
     38 H34        -16.7990     9.9760    48.7330 hn         1 Y2L       0.494000
     39 O19        -14.6610    11.6330    48.3540 o          1 Y2L      -0.553000
     40 C20        -12.5120     9.8460    47.3930 c3         1 Y2L       0.104300
@<TRIPOS>BOND
     1     1     2 ar  
     2     1    16 ar  
     3     1    25 1   
     4     2     3 1   
     5     2     9 ar  
     6     3     4 1   
     7     4    17 1   
     8     4    26 1   
     9     4    27 1   
    10     5    18 1   
    11     5    19 1   
    12     5    39 2   
    13     6     7 1   
    14     6    22 2   
    15     6    23 1   
    16     7    31 1   
    17     7    32 1   
    18     7    33 1   
    19     8     9 1   
    20     8    21 1   
    21     8    34 1   
    22     8    35 1   
    23     9    10 ar  
    24    10    11 ar  
    25    10    36 1   
    26    11    12 1   
    27    11    16 ar  
    28    12    13 1   
    29    12    14 1   
    30    12    15 1   
    31    16    37 1   
    32    17    18 1   
    33    17    20 2   
    34    18    40 1   
    35    19    20 1   
    36    19    38 1   
    37    21    22 1   
    38    21    24 1   
    39    23    24 2   
    40    28    40 1   
    41    29    40 1   
    42    30    40 1   
@<TRIPOS>SUBSTRUCTURE
     1 Y2L         1 TEMP              0 ****  ****    0 ROOT
