@<TRIPOS>MOLECULE
Y4C
   68    70     1     0     0
SMALL
abcg2


@<TRIPOS>ATOM
      1 C10          4.8220     1.9690     1.2930 c6         1 Y4C       0.205300
      2 C11          5.1240     2.1990    -1.1080 c6         1 Y4C       0.205300
      3 O12         -2.8120    -0.6580    -0.7800 o          1 Y4C      -0.590100
      4 C15          3.8530     1.3970    -1.3160 c6         1 Y4C       0.130300
      5 C16          3.5530     1.1750     1.0320 c6         1 Y4C       0.130300
      6 C19         -5.5070     0.3900    -0.1240 ca         1 Y4C      -0.032000
      7 C23         -8.1560    -0.4100    -0.6470 ca         1 Y4C      -0.095300
      8 C24         -6.5860     1.1200     0.3760 ca         1 Y4C      -0.141000
      9 C25         -5.7600    -0.7470    -0.8920 ca         1 Y4C      -0.141000
     10 C26          0.5530     1.4220     0.4310 c3         1 Y4C       0.101000
     11 C27         -7.8860     0.7230     0.1160 ca         1 Y4C      -0.083000
     12 C28         -7.0710    -1.1260    -1.1410 ca         1 Y4C      -0.083000
     13 N2           5.7600     1.9070     0.1750 n3         1 Y4C      -0.740500
     14 C3          -3.0310     0.3570    -0.1440 c          1 Y4C       0.524100
     15 C4          -1.8810     1.2310     0.3860 c          1 Y4C       0.518100
     16 N6          -4.2270     0.8650     0.1820 ns         1 Y4C      -0.115000
     17 N9           2.9300     1.5960    -0.2120 n3         1 Y4C      -0.703600
     18 O13         -2.1020     2.2490     1.0260 o          1 Y4C      -0.602100
     19 N14         -0.6820     0.7620     0.0640 ns         1 Y4C      -0.478900
     20 C29          1.6760     0.9170    -0.4640 c3         1 Y4C       0.146800
     21 C30         -9.5650    -0.8740    -0.8810 c3         1 Y4C      -0.028100
     22 C32        -10.0310    -1.8630     0.1890 c3         1 Y4C      -0.075400
     23 C33        -11.4550    -2.3530    -0.0360 c3         1 Y4C      -0.076400
     24 C34        -11.9080    -3.3470     1.0230 c3         1 Y4C      -0.088100
     25 H36          4.5670     3.0220     1.4380 h1         1 Y4C       0.077450
     26 H37          5.3000     1.6280     2.2090 h1         1 Y4C       0.077450
     27 H39          5.8210     2.0250    -1.9250 h1         1 Y4C       0.077450
     28 H38          4.8850     3.2650    -1.1100 h1         1 Y4C       0.077450
     29 H41          3.3840     1.7400    -2.2410 h1         1 Y4C       0.043700
     30 H42          4.0970     0.3310    -1.4540 h1         1 Y4C       0.043700
     31 H44          3.7740     0.0950     1.0220 h1         1 Y4C       0.043700
     32 H43          2.8780     1.3530     1.8700 h1         1 Y4C       0.043700
     33 H49         -6.4050     2.0070     0.9720 ha         1 Y4C       0.129500
     34 H50         -4.9540    -1.3350    -1.3000 ha         1 Y4C       0.129500
     35 H52          0.4410     2.4990     0.2990 h1         1 Y4C       0.064200
     36 H51          0.7670     1.2430     1.4880 h1         1 Y4C       0.064200
     37 H53         -8.7040     1.3100     0.5150 ha         1 Y4C       0.114500
     38 H54         -7.2480    -2.0100    -1.7430 ha         1 Y4C       0.114500
     39 H35         -4.1870     1.7200     0.7220 hn         1 Y4C       0.183000
     40 H40         -0.6420    -0.1160    -0.4330 hn         1 Y4C       0.342500
     41 H56          1.7740    -0.1770    -0.3600 h1         1 Y4C       0.039700
     42 H55          1.3890     1.1080    -1.5010 h1         1 Y4C       0.039700
     43 H58        -10.2420    -0.0150    -0.8950 hc         1 Y4C       0.046200
     44 H57         -9.6400    -1.3480    -1.8640 hc         1 Y4C       0.046200
     45 H62         -9.3490    -2.7200     0.2090 hc         1 Y4C       0.042200
     46 H63         -9.9570    -1.3910     1.1740 hc         1 Y4C       0.042200
     47 H65        -12.1340    -1.4940    -0.0510 hc         1 Y4C       0.036700
     48 H64        -11.5270    -2.8120    -1.0270 hc         1 Y4C       0.036700
     49 H68        -12.9280    -3.6880     0.8440 hc         1 Y4C       0.032367
     50 H66        -11.2630    -4.2280     1.0370 hc         1 Y4C       0.032367
     51 H67        -11.8780    -2.9030     2.0200 hc         1 Y4C       0.032367
     52 S1           7.0620     0.9040     0.2430 sy         1 Y4C       1.165600
     53 C2           6.4820    -0.7540     0.0170 ca         1 Y4C      -0.307500
     54 C5           6.3770    -1.2760    -1.2670 ca         1 Y4C      -0.014500
     55 C6           5.8290    -2.5350    -1.4420 ca         1 Y4C      -0.135500
     56 C7           5.3860    -3.2880    -0.3560 ca         1 Y4C      -0.020300
     57 C8           5.5150    -2.7470     0.9220 ca         1 Y4C      -0.135500
     58 C9           6.0620    -1.4890     1.1160 ca         1 Y4C      -0.014500
     59 C12          4.8090    -4.6560    -0.5610 c3         1 Y4C      -0.058800
     60 O2           7.9060     1.2360    -0.8940 o          1 Y4C      -0.534500
     61 O1           7.5990     1.0030     1.5910 o          1 Y4C      -0.534500
     62 H1           6.7140    -0.7130    -2.1270 ha         1 Y4C       0.134000
     63 H2           5.7430    -2.9380    -2.4440 ha         1 Y4C       0.118000
     64 H3           5.1820    -3.3170     1.7810 ha         1 Y4C       0.118000
     65 H4           6.1490    -1.0920     2.1190 ha         1 Y4C       0.134000
     66 H5           5.6040    -5.3950    -0.6820 hc         1 Y4C       0.050033
     67 H6           4.2010    -4.9660     0.2880 hc         1 Y4C       0.050033
     68 H7           4.1930    -4.6970    -1.4580 hc         1 Y4C       0.050033
@<TRIPOS>BOND
     1     1     5 1   
     2     1    13 1   
     3     1    25 1   
     4     1    26 1   
     5     2     4 1   
     6     2    13 1   
     7     2    27 1   
     8     2    28 1   
     9     3    14 2   
    10     4    17 1   
    11     4    29 1   
    12     4    30 1   
    13     5    17 1   
    14     5    31 1   
    15     5    32 1   
    16     6     8 ar  
    17     6     9 ar  
    18     6    16 1   
    19     7    11 ar  
    20     7    12 ar  
    21     7    21 1   
    22     8    11 ar  
    23     8    33 1   
    24     9    12 ar  
    25     9    34 1   
    26    10    19 1   
    27    10    20 1   
    28    10    35 1   
    29    10    36 1   
    30    11    37 1   
    31    12    38 1   
    32    13    52 1   
    33    14    15 1   
    34    14    16 1   
    35    15    18 2   
    36    15    19 1   
    37    16    39 1   
    38    17    20 1   
    39    19    40 1   
    40    20    41 1   
    41    20    42 1   
    42    21    22 1   
    43    21    43 1   
    44    21    44 1   
    45    22    23 1   
    46    22    45 1   
    47    22    46 1   
    48    23    24 1   
    49    23    47 1   
    50    23    48 1   
    51    24    49 1   
    52    24    50 1   
    53    24    51 1   
    54    52    53 1   
    55    52    60 2   
    56    52    61 2   
    57    53    54 ar  
    58    53    58 ar  
    59    54    55 ar  
    60    54    62 1   
    61    55    56 ar  
    62    55    63 1   
    63    56    57 ar  
    64    56    59 1   
    65    57    58 ar  
    66    57    64 1   
    67    58    65 1   
    68    59    66 1   
    69    59    67 1   
    70    59    68 1   
@<TRIPOS>SUBSTRUCTURE
     1 Y4C         1 TEMP              0 ****  ****    0 ROOT
