@<TRIPOS>MOLECULE
Y4D
   76    78     1     0     0
SMALL
abcg2


@<TRIPOS>ATOM
      1 N11          2.7380     0.2460     0.1860 ns         1 Y4D      -0.496900
      2 C12          1.4850     0.4280     0.6340 c          1 Y4D       0.605100
      3 C14          0.6350     1.7820    -1.3040 c3         1 Y4D      -0.099400
      4 C15         -0.3240     1.9450    -2.4840 c3         1 Y4D      -0.052700
      5 C16         -0.0690     3.2860    -3.1640 c3         1 Y4D      -0.091600
      6 O20         -2.8720    -0.4180     0.4830 os         1 Y4D      -0.471100
      7 C23         -6.2830    -1.8940     0.7940 c6         1 Y4D      -0.065400
      8 C24         -7.6900    -1.3820     1.1900 c6         1 Y4D      -0.055200
      9 C25         -7.6170     0.0600     1.6890 c6         1 Y4D      -0.068400
     10 C26         -7.0510     0.9410     0.5750 c6         1 Y4D      -0.055200
     11 C27         -5.6310     0.4700     0.1730 c6         1 Y4D      -0.065400
     12 C28         -8.0230     0.9170    -0.6100 c6         1 Y4D      -0.069400
     13 C29         -8.2830    -0.5000    -1.1140 c6         1 Y4D      -0.073400
     14 C02          2.8740    -2.9180     0.7150 c          1 Y4D       0.564000
     15 C04          4.7610    -4.2280     0.1930 c5         1 Y4D       0.103000
     16 C05          5.0190    -3.5270     1.5280 c5         1 Y4D      -0.093400
     17 C06          4.0420    -2.3470     1.5170 c5         1 Y4D      -0.145700
     18 C07          4.6840    -1.1210     0.8490 c3         1 Y4D      -0.077400
     19 C08          3.9200     0.1900     1.0120 c3         1 Y4D       0.103700
     20 C09          4.7800     1.4510     0.8000 c3         1 Y4D      -0.090700
     21 C13          0.4460     0.4930    -0.4900 c3         1 Y4D       0.044700
     22 C17         -0.2000     0.8070    -3.4920 c3         1 Y4D      -0.091600
     23 C21         -3.9120    -1.3810     0.3030 c3         1 Y4D       0.189600
     24 C22         -5.1970    -0.8190     0.8780 c6         1 Y4D      -0.066700
     25 N03          3.3650    -3.9260    -0.0310 ns         1 Y4D      -0.527900
     26 N18         -0.8840     0.4170     0.0430 ns         1 Y4D      -0.475900
     27 O10          4.0390     2.6060     1.0450 oh         1 Y4D      -0.627000
     28 O32          1.1850     0.5780     1.8070 o          1 Y4D      -0.619100
     29 H1           2.8860     0.1360    -0.8060 hn         1 Y4D       0.342500
     30 H2           1.6610     1.8230    -1.6810 hc         1 Y4D       0.066200
     31 H3           0.5240     2.6390    -0.6310 hc         1 Y4D       0.066200
     32 H4          -1.3490     1.9520    -2.0980 hc         1 Y4D       0.036700
     33 H5           0.9380     3.3230    -3.5880 hc         1 Y4D       0.033700
     34 H6          -0.7760     3.4540    -3.9780 hc         1 Y4D       0.033700
     35 H7          -0.1640     4.1170    -2.4630 hc         1 Y4D       0.033700
     36 H9          -6.3050    -2.2940    -0.2260 hc         1 Y4D       0.042700
     37 H10         -8.0790    -2.0160     1.9920 hc         1 Y4D       0.042700
     38 H11         -8.6180     0.4080     1.9640 hc         1 Y4D       0.038700
     39 H12         -7.0090     0.1320     2.5940 hc         1 Y4D       0.038700
     40 H13         -6.9900     1.9710     0.9360 hc         1 Y4D       0.042700
     41 H14         -5.5800     0.3090    -0.9100 hc         1 Y4D       0.042700
     42 H15         -4.9100     1.2610     0.3870 hc         1 Y4D       0.042700
     43 H16         -8.9700     1.3710    -0.2990 hc         1 Y4D       0.033950
     44 H17         -7.6370     1.5370    -1.4250 hc         1 Y4D       0.033950
     45 H18         -9.0650    -0.4870    -1.8780 hc         1 Y4D       0.036700
     46 H19         -7.3880    -0.8810    -1.6170 hc         1 Y4D       0.036700
     47 H20          5.3910    -3.8310    -0.6080 h1         1 Y4D       0.040200
     48 H21          4.9270    -5.3030     0.2460 h1         1 Y4D       0.040200
     49 H22          4.7760    -4.2060     2.3480 hc         1 Y4D       0.050200
     50 H23          6.0580    -3.2220     1.6470 hc         1 Y4D       0.050200
     51 H24          3.7070    -2.0800     2.5220 hc         1 Y4D       0.081700
     52 H25          5.6650    -0.9880     1.3100 hc         1 Y4D       0.068200
     53 H26          4.8750    -1.3230    -0.2080 hc         1 Y4D       0.068200
     54 H27          3.5820     0.2530     2.0490 h1         1 Y4D       0.067700
     55 S1           5.5830     1.5780    -0.8500 s6         1 Y4D       1.286600
     56 H29          5.6040     1.4380     1.5190 h2         1 Y4D       0.088700
     57 H30          0.5980    -0.3710    -1.1400 h1         1 Y4D       0.101700
     58 H31          0.8250     0.7260    -3.8640 hc         1 Y4D       0.033700
     59 H32         -0.4790    -0.1590    -3.0700 hc         1 Y4D       0.033700
     60 H33         -0.8490     0.9820    -4.3510 hc         1 Y4D       0.033700
     61 H34         -4.0450    -1.6000    -0.7610 h1         1 Y4D       0.046200
     62 H35         -3.6430    -2.3150     0.8070 h1         1 Y4D       0.046200
     63 H36         -5.0220    -0.5970     1.9370 hc         1 Y4D       0.059700
     64 H39          2.7990    -4.4150    -0.7060 hn         1 Y4D       0.319500
     65 H40         -1.2060     1.1850     0.6120 hn         1 Y4D       0.328500
     66 H41          3.2870     2.6260     0.4420 ho         1 Y4D       0.437000
     67 O2           6.6150     0.5260    -0.8860 o          1 Y4D      -0.685533
     68 O1           4.4950     1.3710    -1.8360 o          1 Y4D      -0.685533
     69 O3           6.1430     2.9390    -0.8920 o          1 Y4D      -0.685533
     70 C19         -1.7090    -0.6320    -0.1380 c          1 Y4D       0.648100
     71 C30         -8.6750    -1.4450     0.0190 c6         1 Y4D      -0.069400
     72 O31         -1.4540    -1.6330    -0.7780 o          1 Y4D      -0.547000
     73 H37         -8.7500    -2.4700    -0.3570 hc         1 Y4D       0.033950
     74 H38         -9.6720    -1.1760     0.3860 hc         1 Y4D       0.033950
     75 O01          1.7100    -2.5530     0.7290 o          1 Y4D      -0.542000
     76 H8          -5.9980    -2.7340     1.4320 hc         1 Y4D       0.042700
@<TRIPOS>BOND
     1     1     2 1   
     2     1    19 1   
     3     1    29 1   
     4     2    21 1   
     5     2    28 2   
     6     3     4 1   
     7     3    21 1   
     8     3    30 1   
     9     3    31 1   
    10     4     5 1   
    11     4    22 1   
    12     4    32 1   
    13     5    33 1   
    14     5    34 1   
    15     5    35 1   
    16     6    23 1   
    17     6    70 1   
    18     7     8 1   
    19     7    24 1   
    20     7    36 1   
    21     7    76 1   
    22     8     9 1   
    23     8    37 1   
    24     8    71 1   
    25     9    10 1   
    26     9    38 1   
    27     9    39 1   
    28    10    11 1   
    29    10    12 1   
    30    10    40 1   
    31    11    24 1   
    32    11    41 1   
    33    11    42 1   
    34    12    13 1   
    35    12    43 1   
    36    12    44 1   
    37    13    45 1   
    38    13    46 1   
    39    13    71 1   
    40    14    17 1   
    41    14    25 1   
    42    14    75 2   
    43    15    16 1   
    44    15    25 1   
    45    15    47 1   
    46    15    48 1   
    47    16    17 1   
    48    16    49 1   
    49    16    50 1   
    50    17    18 1   
    51    17    51 1   
    52    18    19 1   
    53    18    52 1   
    54    18    53 1   
    55    19    20 1   
    56    19    54 1   
    57    20    27 1   
    58    20    55 1   
    59    20    56 1   
    60    21    26 1   
    61    21    57 1   
    62    22    58 1   
    63    22    59 1   
    64    22    60 1   
    65    23    24 1   
    66    23    61 1   
    67    23    62 1   
    68    24    63 1   
    69    25    64 1   
    70    26    65 1   
    71    26    70 1   
    72    27    66 1   
    73    55    67 1   
    74    55    68 1   
    75    55    69 1   
    76    70    72 2   
    77    71    73 1   
    78    71    74 1   
@<TRIPOS>SUBSTRUCTURE
     1 Y4D         1 TEMP              0 ****  ****    0 ROOT
