@<TRIPOS>MOLECULE
Y71
   68    70     1     0     0
SMALL
abcg2


@<TRIPOS>ATOM
      1 C1          -2.3180    -0.2750    -0.2090 c          1 Y71       0.640100
      2 C10          2.8100    -2.5080     0.0710 c5         1 Y71      -0.145700
      3 C11          3.3890    -3.7250    -0.6350 c          1 Y71       0.560000
      4 C12          2.4560    -4.5040     1.3760 c5         1 Y71       0.099000
      5 C13          2.6270    -2.9900     1.5110 c5         1 Y71      -0.092400
      6 C14          3.9140     1.2090     0.6390 c3         1 Y71      -0.098700
      7 C15         -4.2730    -1.5140     0.2730 c3         1 Y71       0.195600
      8 C16         -5.5880    -1.2820     0.9790 c5         1 Y71      -0.073700
      9 C17         -6.4840    -2.5560     1.0460 c5         1 Y71      -0.043500
     10 C18         -7.8260    -1.9040     1.4060 c5         1 Y71      -0.079400
     11 C19         -6.7650    -2.9860    -0.3770 c2         1 Y71      -0.230200
     12 C2          -0.4070     1.1730    -0.5400 c3         1 Y71       0.039700
     13 C20         -7.5830    -2.0790    -0.9130 c2         1 Y71      -0.227200
     14 C21         -7.8550    -1.0320     0.1430 c5         1 Y71      -0.053500
     15 C22         -6.5250    -0.2440     0.3090 c5         1 Y71      -0.068400
     16 C3          -0.1180     2.6760    -0.6070 c3         1 Y71      -0.090400
     17 C4          -0.9810     3.4590    -1.5980 c3         1 Y71      -0.052700
     18 C5          -0.6060     4.9360    -1.5320 c3         1 Y71      -0.092100
     19 C6          -0.8380     2.9330    -3.0220 c3         1 Y71      -0.092100
     20 C7           0.5980     0.5130     0.4100 c          1 Y71       0.586100
     21 C8           3.0120    -0.0350     0.5300 c3         1 Y71       0.101700
     22 C9           3.6660    -1.2630    -0.1010 c3         1 Y71      -0.066400
     23 N1          -1.7620     0.9500    -0.1240 ns         1 Y71      -0.473900
     24 N2           1.7930     0.3040    -0.1650 ns         1 Y71      -0.493900
     25 N3           3.1900    -4.7890     0.1620 ns         1 Y71      -0.524900
     26 O1          -1.7910    -1.2310    -0.7410 o          1 Y71      -0.546000
     27 O2           3.9200    -3.7370    -1.7340 o          1 Y71      -0.554000
     28 O4           0.3260     0.2480     1.5690 o          1 Y71      -0.632100
     29 O5          -3.5320    -0.2920     0.3420 os         1 Y71      -0.469100
     30 H1           1.8260    -2.3360    -0.3850 hc         1 Y71       0.089700
     31 H2           2.8690    -5.0500     2.2240 h1         1 Y71       0.032700
     32 H3           1.4030    -4.7850     1.2770 h1         1 Y71       0.032700
     33 H4           3.5260    -2.7690     2.0920 hc         1 Y71       0.062700
     34 H5           1.7820    -2.5270     2.0190 hc         1 Y71       0.062700
     35 H6           3.3070     2.0130     1.0640 h2         1 Y71       0.087700
     36 S1           4.5420     1.8530    -0.9660 s6         1 Y71       1.280600
     37 H8          -3.7140    -2.3200     0.7570 h1         1 Y71       0.050700
     38 H9          -4.4340    -1.7910    -0.7720 h1         1 Y71       0.050700
     39 H10         -5.3730    -0.9770     2.0080 hc         1 Y71       0.061700
     40 H11         -6.1040    -3.3250     1.7180 hc         1 Y71       0.071700
     41 H12         -8.6490    -2.6190     1.4540 hc         1 Y71       0.049200
     42 H13         -7.7950    -1.3280     2.3340 hc         1 Y71       0.049200
     43 H14         -6.2920    -3.8180    -0.8810 ha         1 Y71       0.193000
     44 H16         -0.2680     0.7430    -1.5350 h1         1 Y71       0.091700
     45 H17         -7.9080    -2.0190    -1.9430 ha         1 Y71       0.189000
     46 H19         -8.7320    -0.4070    -0.0140 hc         1 Y71       0.066700
     47 H20         -6.6660     0.6290     0.9480 hc         1 Y71       0.052200
     48 H21         -6.1470     0.1140    -0.6500 hc         1 Y71       0.052200
     49 H22         -0.2370     3.1020     0.3960 hc         1 Y71       0.066700
     50 H23          0.9340     2.8130    -0.8760 hc         1 Y71       0.066700
     51 H24         -2.0310     3.3650    -1.3010 hc         1 Y71       0.033700
     52 H25          0.4340     5.0860    -1.8340 hc         1 Y71       0.035200
     53 H26         -1.2330     5.5320    -2.1960 hc         1 Y71       0.035200
     54 H27         -0.7190     5.3310    -0.5210 hc         1 Y71       0.035200
     55 H28          0.2060     2.9560    -3.3440 hc         1 Y71       0.035200
     56 H29         -1.1950     1.9080    -3.1270 hc         1 Y71       0.035200
     57 H30         -1.4120     3.5450    -3.7200 hc         1 Y71       0.035200
     58 H31          2.7430    -0.2740     1.5620 h1         1 Y71       0.062700
     59 H32          4.6400    -1.4400     0.3650 hc         1 Y71       0.073200
     60 H33          3.8470    -1.0870    -1.1630 hc         1 Y71       0.073200
     61 H34         -2.2110     1.6450     0.4530 hn         1 Y71       0.325500
     62 H35          1.9300     0.6220    -1.1170 hn         1 Y71       0.356500
     63 H36          3.3840    -5.7300    -0.1470 hn         1 Y71       0.311500
     64 O8           4.8670     3.2660    -0.7180 o          1 Y71      -0.679867
     65 O6           5.7290     1.0160    -1.2440 o          1 Y71      -0.679867
     66 O7           3.4570     1.6760    -1.9600 o          1 Y71      -0.679867
     67 O3           5.0030     1.0120     1.4860 oh         1 Y71      -0.640000
     68 H37          5.6800     0.5180     1.0050 ho         1 Y71       0.450000
@<TRIPOS>BOND
     1     1    23 1   
     2     1    26 2   
     3     1    29 1   
     4     2     3 1   
     5     2     5 1   
     6     2    22 1   
     7     2    30 1   
     8     3    25 1   
     9     3    27 2   
    10     4     5 1   
    11     4    25 1   
    12     4    31 1   
    13     4    32 1   
    14     5    33 1   
    15     5    34 1   
    16     6    21 1   
    17     6    35 1   
    18     6    36 1   
    19     6    67 1   
    20     7     8 1   
    21     7    29 1   
    22     7    37 1   
    23     7    38 1   
    24     8     9 1   
    25     8    15 1   
    26     8    39 1   
    27     9    10 1   
    28     9    11 1   
    29     9    40 1   
    30    10    14 1   
    31    10    41 1   
    32    10    42 1   
    33    11    13 2   
    34    11    43 1   
    35    12    16 1   
    36    12    20 1   
    37    12    23 1   
    38    12    44 1   
    39    13    14 1   
    40    13    45 1   
    41    14    15 1   
    42    14    46 1   
    43    15    47 1   
    44    15    48 1   
    45    16    17 1   
    46    16    49 1   
    47    16    50 1   
    48    17    18 1   
    49    17    19 1   
    50    17    51 1   
    51    18    52 1   
    52    18    53 1   
    53    18    54 1   
    54    19    55 1   
    55    19    56 1   
    56    19    57 1   
    57    20    24 1   
    58    20    28 2   
    59    21    22 1   
    60    21    24 1   
    61    21    58 1   
    62    22    59 1   
    63    22    60 1   
    64    23    61 1   
    65    24    62 1   
    66    25    63 1   
    67    36    64 1   
    68    36    65 1   
    69    36    66 1   
    70    67    68 1   
@<TRIPOS>SUBSTRUCTURE
     1 Y71         1 TEMP              0 ****  ****    0 ROOT
