@<TRIPOS>MOLECULE
Y76
   30    32     1     0     0
SMALL
abcg2


@<TRIPOS>ATOM
      1 C11        -10.3060    10.9370    43.8690 c3         1 Y76       0.107300
      2 C13        -12.0980     5.3860    43.4340 ca         1 Y76      -0.140300
      3 C15        -12.4100     3.1650    44.3400 ca         1 Y76      -0.151500
      4 C16        -11.0420     2.9950    44.3270 ca         1 Y76       0.184000
      5 C17        -10.1820     3.9830    43.8830 ca         1 Y76      -0.151500
      6 C18        -10.7210     5.1790    43.4350 ca         1 Y76      -0.067500
      7 C1         -12.8760     7.4760    46.0330 ca         1 Y76       0.125900
      8 N2         -12.7910     8.0450    47.2460 nb         1 Y76      -0.165000
      9 C3         -12.1280     9.1660    47.3500 ca         1 Y76       0.217000
     10 N4         -11.5040     9.8510    46.4010 nb         1 Y76      -0.165000
     11 C5         -12.2710     8.0860    44.9670 ca         1 Y76      -0.098400
     12 C6         -11.5930     9.2870    45.2210 ca         1 Y76       0.189900
     13 N7         -11.0760     9.7280    44.0490 n          1 Y76      -0.371300
     14 C8         -11.4050     8.8350    43.0340 c          1 Y76       0.601000
     15 N9         -12.1430     7.8300    43.6260 n          1 Y76      -0.283000
     16 O10        -11.1010     8.9290    41.8680 o          1 Y76      -0.534000
     17 C12        -12.6820     6.6810    42.9320 c3         1 Y76       0.169300
     18 C14        -12.9300     4.3720    43.8920 ca         1 Y76      -0.067500
     19 F32        -10.5270     1.8330    44.7590 f          1 Y76      -0.174000
     20 H113        -9.9930    11.0000    42.8310 h1         1 Y76       0.060700
     21 H111       -10.9070    11.8110    44.1110 h1         1 Y76       0.060700
     22 H112        -9.4230    10.9210    44.5040 h1         1 Y76       0.060700
     23 H151       -13.0610     2.3770    44.6950 ha         1 Y76       0.137000
     24 H171        -9.1120     3.8200    43.8830 ha         1 Y76       0.137000
     25 H181       -10.0510     5.9540    43.0820 ha         1 Y76       0.121500
     26 H11        -13.4270     6.5470    45.9560 h4         1 Y76       0.042100
     27 H121       -13.7690     6.6760    43.0450 h1         1 Y76       0.074700
     28 H122       -12.4730     6.8190    41.8720 h1         1 Y76       0.074700
     29 H141       -14.0040     4.5200    43.9030 ha         1 Y76       0.121500
     30 CL19       -12.0440     9.8610    48.9320 cl         1 Y76      -0.117000
@<TRIPOS>BOND
     1     1    13 1   
     2     1    20 1   
     3     1    21 1   
     4     1    22 1   
     5     2     6 ar  
     6     2    17 1   
     7     2    18 ar  
     8     3     4 ar  
     9     3    18 ar  
    10     3    23 1   
    11     4     5 ar  
    12     4    19 1   
    13     5     6 ar  
    14     5    24 1   
    15     6    25 1   
    16     7     8 ar  
    17     7    11 ar  
    18     7    26 1   
    19     8     9 ar  
    20     9    10 ar  
    21     9    30 1   
    22    10    12 ar  
    23    11    12 ar  
    24    11    15 1   
    25    12    13 1   
    26    13    14 1   
    27    14    15 1   
    28    14    16 2   
    29    15    17 1   
    30    17    27 1   
    31    17    28 1   
    32    18    29 1   
@<TRIPOS>SUBSTRUCTURE
     1 Y76         1 TEMP              0 ****  ****    0 ROOT
