@<TRIPOS>MOLECULE
Y8U
   55    58     1     0     0
SMALL
abcg2


@<TRIPOS>ATOM
      1 C01         -9.7400     2.4850    45.7050 ca         1 Y8U      -0.069000
      2 C02         -9.0560     1.3100    45.4440 ca         1 Y8U      -0.119000
      3 C04         -9.6550     1.5080    43.1130 ca         1 Y8U      -0.148000
      4 C05        -10.3270     2.6760    43.4180 ca         1 Y8U       0.193000
      5 C06        -10.3900     3.2040    44.7020 cp         1 Y8U      -0.072000
      6 C07        -11.1230     4.4440    45.0180 cp         1 Y8U      -0.064000
      7 C10        -11.6070     6.7950    44.6130 ca         1 Y8U      -0.181600
      8 C11        -12.4960     6.8030    45.6950 ca         1 Y8U       0.014000
      9 C13        -11.9890     4.4810    46.1130 ca         1 Y8U      -0.048000
     10 C15        -11.1940     8.0120    43.8540 c          1 Y8U       0.587600
     11 C17        -13.5500     8.7200    43.8550 c6         1 Y8U       0.015700
     12 C18        -13.8530     8.8390    45.3400 c          1 Y8U       0.558000
     13 C22        -11.7630    10.2160    43.0020 c6         1 Y8U       0.084000
     14 C23        -12.6210    11.3500    43.5260 c6         1 Y8U       0.101000
     15 C25        -14.3720     9.6840    43.0140 c6         1 Y8U       0.113000
     16 C03         -9.0200     0.8330    44.1430 ca         1 Y8U       0.146000
     17 CL08        -8.1720    -0.6310    43.7940 cl         1 Y8U      -0.186000
     18 C09        -10.9410     5.6120    44.2930 ca         1 Y8U      -0.014000
     19 C12        -12.6600     5.6370    46.4440 ca         1 Y8U      -0.167000
     20 F14        -10.9610     3.3070    42.4210 f          1 Y8U      -0.170000
     21 N16        -12.1300     8.9590    43.6370 n          1 Y8U      -0.406800
     22 N19        -13.1970     7.9340    46.1170 ns         1 Y8U      -0.150000
     23 O20        -10.0410     8.1310    43.4650 o          1 Y8U      -0.548000
     24 O21        -14.6040     9.6620    45.8170 o          1 Y8U      -0.512000
     25 N24        -14.0300    11.0600    43.2990 n          1 Y8U      -0.402800
     26 O27        -14.4910    13.0710    44.0870 os         1 Y8U      -0.474100
     27 O28        -16.1980    11.6950    43.5320 o          1 Y8U      -0.541000
     28 C29        -15.3020    14.1810    44.5550 c3         1 Y8U       0.225000
     29 C30        -16.1600    14.7490    43.4320 c3         1 Y8U      -0.108767
     30 C31        -16.1390    13.7730    45.7620 c3         1 Y8U      -0.108767
     31 C32        -14.2630    15.2120    44.9790 c3         1 Y8U      -0.108767
     32 H1          -9.7570     2.8650    46.7180 ha         1 Y8U       0.124000
     33 H2          -8.5560     0.7800    46.2420 ha         1 Y8U       0.136000
     34 H3          -9.6400     1.1370    42.0970 ha         1 Y8U       0.150000
     35 H4         -12.1540     3.5890    46.7050 ha         1 Y8U       0.122000
     36 H5         -13.8080     7.7070    43.5240 h1         1 Y8U       0.083700
     37 H6         -10.7230    10.4380    43.2290 h1         1 Y8U       0.067700
     38 H7         -11.8480    10.1360    41.9140 h1         1 Y8U       0.067700
     39 H8         -12.4120    11.4950    44.5900 h1         1 Y8U       0.060700
     40 H9         -12.3250    12.2610    43.0070 h1         1 Y8U       0.060700
     41 H10        -14.2060     9.4470    41.9590 h1         1 Y8U       0.077200
     42 H11        -15.4280     9.5200    43.2090 h1         1 Y8U       0.077200
     43 H12        -10.2340     5.6330    43.4740 ha         1 Y8U       0.145000
     44 H13        -13.3350     5.6410    47.2910 ha         1 Y8U       0.123000
     45 H14        -13.4600     7.9480    47.0950 hn         1 Y8U       0.159000
     46 H15        -16.6330    15.6690    43.7760 hc         1 Y8U       0.049367
     47 H16        -15.5500    14.9990    42.5620 hc         1 Y8U       0.049367
     48 H17        -16.9480    14.0670    43.1200 hc         1 Y8U       0.049367
     49 H18        -16.5900    14.6640    46.2000 hc         1 Y8U       0.049367
     50 H19        -16.9420    13.0870    45.5030 hc         1 Y8U       0.049367
     51 H20        -15.5160    13.3090    46.5290 hc         1 Y8U       0.049367
     52 H21        -14.7640    16.1060    45.3500 hc         1 Y8U       0.049367
     53 H22        -13.6270    14.8280    45.7780 hc         1 Y8U       0.049367
     54 H23        -13.6290    15.5050    44.1410 hc         1 Y8U       0.049367
     55 C26        -15.0110    11.9310    43.6420 c          1 Y8U       0.667100
@<TRIPOS>BOND
     1     1     2 ar  
     2     1     5 ar  
     3     1    32 1   
     4     2    16 ar  
     5     2    33 1   
     6     3     4 ar  
     7     3    16 ar  
     8     3    34 1   
     9     4     5 ar  
    10     4    20 1   
    11     5     6 1   
    12     6     9 ar  
    13     6    18 ar  
    14     7     8 ar  
    15     7    10 1   
    16     7    18 ar  
    17     8    19 ar  
    18     8    22 1   
    19     9    19 ar  
    20     9    35 1   
    21    10    21 1   
    22    10    23 2   
    23    11    12 1   
    24    11    15 1   
    25    11    21 1   
    26    11    36 1   
    27    12    22 1   
    28    12    24 2   
    29    13    14 1   
    30    13    21 1   
    31    13    37 1   
    32    13    38 1   
    33    14    25 1   
    34    14    39 1   
    35    14    40 1   
    36    15    25 1   
    37    15    41 1   
    38    15    42 1   
    39    16    17 1   
    40    18    43 1   
    41    19    44 1   
    42    22    45 1   
    43    25    55 1   
    44    26    28 1   
    45    26    55 1   
    46    27    55 2   
    47    28    29 1   
    48    28    30 1   
    49    28    31 1   
    50    29    46 1   
    51    29    47 1   
    52    29    48 1   
    53    30    49 1   
    54    30    50 1   
    55    30    51 1   
    56    31    52 1   
    57    31    53 1   
    58    31    54 1   
@<TRIPOS>SUBSTRUCTURE
     1 Y8U         1 TEMP              0 ****  ****    0 ROOT
