@<TRIPOS>MOLECULE
Y9K
  124   133     1     0     0
SMALL
abcg2


@<TRIPOS>ATOM
      1 C4          -6.8720    59.3820    82.5850 ca         1 Y9K       0.255000
      2 C14         -4.8390    55.6570    82.9130 ca         1 Y9K      -0.098500
      3 C5          -7.6620    58.8570    81.5590 ca         1 Y9K       0.282000
      4 C6          -7.4410    59.2840    80.2510 ca         1 Y9K      -0.140000
      5 C11         -8.6320    55.9810    83.1960 c5         1 Y9K      -0.024400
      6 C7          -6.4310    60.1780    79.9280 ca         1 Y9K      -0.068300
      7 C8          -6.2320    60.6120    78.5060 c3         1 Y9K      -0.039800
      8 C9          -8.8930    56.8220    80.8910 c5         1 Y9K       0.461500
      9 C10         -9.0850    55.5860    81.7900 c5         1 Y9K      -0.127400
     10 C12         -7.1830    55.7110    83.5050 ca         1 Y9K      -0.090300
     11 C13         -6.1620    55.8920    82.5740 ca         1 Y9K      -0.090500
     12 N1          -8.6320    57.9070    81.8270 nh         1 Y9K      -0.833400
     13 N2         -10.7220    57.5870    84.7950 ns         1 Y9K      -0.504500
     14 C3          -5.8720    60.2920    82.2600 ca         1 Y9K      -0.073000
     15 N3          -8.5200    58.0810    85.4830 ne         1 Y9K      -0.757100
     16 C15         -4.4890    55.2250    84.1920 cp         1 Y9K      -0.033000
     17 C16         -3.0800    54.9630    84.5480 cp         1 Y9K      -0.030000
     18 C17         -2.0620    55.8110    84.1100 ca         1 Y9K      -0.090000
     19 C18         -0.7440    55.5500    84.4510 ca         1 Y9K      -0.112000
     20 C19         -0.4220    54.4460    85.2250 ca         1 Y9K      -0.099000
     21 C2          -5.6240    60.6840    80.9510 ca         1 Y9K      -0.083300
     22 C20         -1.4210    53.5790    85.6710 cp         1 Y9K      -0.042000
     23 C21         -1.0920    52.3900    86.4840 cp         1 Y9K      -0.025000
     24 C22         -1.9310    51.9810    87.5230 ca         1 Y9K      -0.100000
     25 C23         -1.6270    50.8600    88.2820 ca         1 Y9K      -0.113500
     26 C24         -0.4780    50.1270    88.0180 ca         1 Y9K      -0.114000
     27 C25          0.3650    50.5250    86.9900 ca         1 Y9K      -0.113500
     28 C26          0.0610    51.6450    86.2300 ca         1 Y9K      -0.100000
     29 C27         -2.7430    53.8550    85.3230 ca         1 Y9K      -0.089000
     30 C28         -5.5110    55.0370    85.1210 ca         1 Y9K      -0.098500
     31 C29         -6.8320    55.2790    84.7820 ca         1 Y9K      -0.090500
     32 C30         -8.9450    57.5290    83.1670 c5         1 Y9K       0.063900
     33 C31        -10.4410    57.6730    83.4730 c          1 Y9K       0.580000
     34 C32         -9.7490    57.6030    85.8080 c          1 Y9K       0.736400
     35 C33         -8.1880    58.2510    84.2400 c2         1 Y9K       0.737200
     36 C35         -6.8950    60.7600    85.6810 c3         1 Y9K       0.165300
     37 C36         -5.8540    61.3900    86.6220 c3         1 Y9K       0.125300
     38 C37         -6.4440    62.5700    87.4140 c3         1 Y9K       0.164300
     39 C38         -5.4050    63.2050    88.3280 c3         1 Y9K       0.212600
     40 C39         -6.9880    68.9910    89.0980 c3         1 Y9K       0.218600
     41 C40         -7.8430    70.2350    88.9050 c5         1 Y9K       0.103300
     42 C41         -6.7730    72.2920    88.7350 c5         1 Y9K       0.265300
     43 C42         -4.3690    72.0170    89.4420 cc         1 Y9K       0.439700
     44 C43         -3.8420    74.0040    89.9190 ca         1 Y9K      -0.093600
     45 C44         -3.2600    75.2270    90.3000 ca         1 Y9K       0.440900
     46 C45         -5.2740    76.2240    89.8130 ca         1 Y9K       0.158900
     47 C46         -5.1620    74.0540    89.5020 ca         1 Y9K       0.121500
     48 C47         -6.7370    71.6140    87.3580 c5         1 Y9K       0.134300
     49 C48         -7.9500    70.7020    87.4510 c5         1 Y9K       0.142300
     50 N4          -7.1280    58.9940    83.9230 nh         1 Y9K      -0.678400
     51 N5          -5.4890    72.7650    89.1910 na         1 Y9K      -0.281300
     52 N6          -3.3660    72.7180    89.8770 nd         1 Y9K      -0.577100
     53 N7          -1.9980    75.3250    90.7220 nv         1 Y9K      -1.079900
     54 N8          -4.0160    76.3280    90.2320 nb         1 Y9K      -0.322000
     55 N9          -5.9270    75.1410    89.4300 nb         1 Y9K      -0.203000
     56 O1          -9.9530    57.0690    80.0210 oh         1 Y9K      -0.659000
     57 O10         -5.6300    66.3910    88.2950 os         1 Y9K      -0.725800
     58 O11         -6.5770    67.5880    86.3100 o          1 Y9K      -0.839000
     59 O12         -7.9730    65.6980    87.4530 o          1 Y9K      -0.839000
     60 O13         -7.6950    67.8720    88.6100 os         1 Y9K      -0.589400
     61 O14         -7.2520    71.3220    89.6240 os         1 Y9K      -0.460000
     62 O15         -6.8000    72.4980    86.2860 oh         1 Y9K      -0.681000
     63 O16         -9.0970    71.4830    87.2250 oh         1 Y9K      -0.722000
     64 O2         -11.2870    57.7580    82.6110 o          1 Y9K      -0.544000
     65 O3         -10.0640    57.2820    86.9320 o          1 Y9K      -0.513000
     66 O4          -7.3090    61.6490    84.6780 oh         1 Y9K      -0.767000
     67 O5          -5.4260    60.3870    87.5210 oh         1 Y9K      -0.669000
     68 O6          -6.9520    63.5010    86.4870 oh         1 Y9K      -0.842000
     69 O7          -6.0710    64.0580    89.2400 os         1 Y9K      -0.598400
     70 O8          -3.9740    65.3980    89.8830 o          1 Y9K      -0.842500
     71 O9          -6.3700    66.0170    90.7440 o          1 Y9K      -0.842500
     72 P1          -5.4510    65.5040    89.6860 p5         1 Y9K       1.461800
     73 P2          -7.0040    66.8520    87.5390 p5         1 Y9K       1.481800
     74 H1          -4.0730    55.7880    82.1590 ha         1 Y9K       0.116500
     75 H2          -8.0880    58.9180    79.4650 ha         1 Y9K       0.124000
     76 H3          -9.2370    55.4760    83.9500 hc         1 Y9K       0.077700
     77 H4          -6.3740    61.6890    78.3950 hc         1 Y9K       0.036700
     78 H5          -5.2210    60.3930    78.1560 hc         1 Y9K       0.036700
     79 H6          -6.9310    60.1140    77.8360 hc         1 Y9K       0.036700
     80 H7          -8.0210    56.6990    80.2430 h2         1 Y9K       0.074700
     81 H8         -10.1340    55.2880    81.8050 hc         1 Y9K       0.063200
     82 H9          -8.5210    54.7360    81.4090 hc         1 Y9K       0.063200
     83 H10         -6.3780    56.2000    81.5590 ha         1 Y9K       0.119500
     84 H11        -11.6890    57.4820    85.0790 hn         1 Y9K       0.332500
     85 H12         -5.2610    60.7330    83.0330 ha         1 Y9K       0.140000
     86 H14         -4.9010    62.5670    80.1820 hc         1 Y9K       0.041367
     87 H15         -3.9940    61.9500    81.5590 hc         1 Y9K       0.041367
     88 H16         -3.7870    61.2320    79.9660 hc         1 Y9K       0.041367
     89 H17         -2.3020    56.6870    83.5210 ha         1 Y9K       0.122000
     90 H18          0.0390    56.2210    84.1220 ha         1 Y9K       0.114000
     91 H19          0.6110    54.2700    85.4980 ha         1 Y9K       0.111000
     92 H20         -2.8210    52.5520    87.7570 ha         1 Y9K       0.116000
     93 H21         -2.2880    50.5640    89.0870 ha         1 Y9K       0.109000
     94 H22         -0.2400    49.2520    88.6100 ha         1 Y9K       0.107000
     95 H23          1.2610    49.9570    86.7700 ha         1 Y9K       0.109000
     96 H24          0.7190    51.9280    85.4170 ha         1 Y9K       0.116000
     97 H25         -3.5250    53.1690    85.6260 ha         1 Y9K       0.115000
     98 H26         -5.2760    54.7120    86.1270 ha         1 Y9K       0.116500
     99 H27         -7.6040    55.1230    85.5260 ha         1 Y9K       0.119500
    100 H29         -6.2200    58.7140    85.7610 h1         1 Y9K       0.066200
    101 H30         -5.3090    59.6920    84.6390 h1         1 Y9K       0.066200
    102 H31         -7.7500    60.4420    86.2980 h1         1 Y9K       0.066700
    103 H32         -5.0170    61.7540    86.0080 h1         1 Y9K       0.031700
    104 H33         -7.2480    62.1610    88.0470 h1         1 Y9K       0.047700
    105 H34         -4.8670    62.4350    88.8870 h1         1 Y9K       0.013700
    106 H35         -4.6700    63.7370    87.7150 h1         1 Y9K       0.013700
    107 H36         -6.0160    69.1170    88.6070 h1         1 Y9K       0.043200
    108 H37         -6.7880    68.8510    90.1640 h1         1 Y9K       0.043200
    109 H38         -8.8370    70.0440    89.3250 h1         1 Y9K       0.083700
    110 H39         -7.4260    73.1710    88.7070 h2         1 Y9K       0.102700
    111 H40         -4.3550    70.9470    89.2910 h5         1 Y9K       0.096800
    112 H41         -5.8330    77.1540    89.7830 h5         1 Y9K       0.031100
    113 H42         -5.8450    70.9750    87.3000 h1         1 Y9K       0.069700
    114 H43         -7.8840    69.8600    86.7530 h1         1 Y9K       0.123700
    115 H44         -1.6190    76.2170    90.9880 hn         1 Y9K       0.499000
    116 H45         -1.4060    74.5150    90.7830 hn         1 Y9K       0.499000
    117 H46        -10.7320    57.2600    80.5610 ho         1 Y9K       0.477000
    118 H48         -5.9260    72.8800    86.1530 ho         1 Y9K       0.496000
    119 H49         -9.8710    70.9200    87.3310 ho         1 Y9K       0.504000
    120 H50         -7.4070    62.5140    85.1170 ho         1 Y9K       0.577000
    121 H51         -4.4730    60.4400    87.6220 ho         1 Y9K       0.437000
    122 H52         -7.3650    64.2940    86.9280 ho         1 Y9K       0.626000
    123 C1          -4.5210    61.6570    80.6530 c3         1 Y9K      -0.040800
    124 C34         -6.3100    59.5070    85.0240 c3         1 Y9K       0.217800
@<TRIPOS>BOND
     1     1     3 ar  
     2     1    14 ar  
     3     1    50 1   
     4     2    11 ar  
     5     2    16 ar  
     6     2    74 1   
     7     3     4 ar  
     8     3    12 1   
     9     4     6 ar  
    10     4    75 1   
    11     5     9 1   
    12     5    10 1   
    13     5    32 1   
    14     5    76 1   
    15     6     7 1   
    16     6    21 ar  
    17     7    77 1   
    18     7    78 1   
    19     7    79 1   
    20     8     9 1   
    21     8    12 1   
    22     8    56 1   
    23     8    80 1   
    24     9    81 1   
    25     9    82 1   
    26    10    11 ar  
    27    10    31 ar  
    28    11    83 1   
    29    12    32 1   
    30    13    33 1   
    31    13    34 1   
    32    13    84 1   
    33    14    21 ar  
    34    14    85 1   
    35    15    34 1   
    36    15    35 2   
    37    16    17 1   
    38    16    30 ar  
    39    17    18 ar  
    40    17    29 ar  
    41    18    19 ar  
    42    18    89 1   
    43    19    20 ar  
    44    19    90 1   
    45    20    22 ar  
    46    20    91 1   
    47    21   123 1   
    48    22    23 1   
    49    22    29 ar  
    50    23    24 ar  
    51    23    28 ar  
    52    24    25 ar  
    53    24    92 1   
    54    25    26 ar  
    55    25    93 1   
    56    26    27 ar  
    57    26    94 1   
    58    27    28 ar  
    59    27    95 1   
    60    28    96 1   
    61    29    97 1   
    62    30    31 ar  
    63    30    98 1   
    64    31    99 1   
    65    32    33 1   
    66    32    35 1   
    67    33    64 2   
    68    34    65 2   
    69    35    50 1   
    70    36    37 1   
    71    36    66 1   
    72    36   102 1   
    73    36   124 1   
    74    37    38 1   
    75    37    67 1   
    76    37   103 1   
    77    38    39 1   
    78    38    68 1   
    79    38   104 1   
    80    39    69 1   
    81    39   105 1   
    82    39   106 1   
    83    40    41 1   
    84    40    60 1   
    85    40   107 1   
    86    40   108 1   
    87    41    49 1   
    88    41    61 1   
    89    41   109 1   
    90    42    48 1   
    91    42    51 1   
    92    42    61 1   
    93    42   110 1   
    94    43    51 1   
    95    43    52 2   
    96    43   111 1   
    97    44    45 ar  
    98    44    47 ar  
    99    44    52 1   
   100    45    53 1   
   101    45    54 ar  
   102    46    54 ar  
   103    46    55 ar  
   104    46   112 1   
   105    47    51 1   
   106    47    55 ar  
   107    48    49 1   
   108    48    62 1   
   109    48   113 1   
   110    49    63 1   
   111    49   114 1   
   112    50   124 1   
   113    53   115 1   
   114    53   116 1   
   115    56   117 1   
   116    57    72 1   
   117    57    73 1   
   118    58    73 1   
   119    59    73 1   
   120    60    73 1   
   121    62   118 1   
   122    63   119 1   
   123    66   120 1   
   124    67   121 1   
   125    68   122 1   
   126    69    72 1   
   127    70    72 1   
   128    71    72 1   
   129    86   123 1   
   130    87   123 1   
   131    88   123 1   
   132   100   124 1   
   133   101   124 1   
@<TRIPOS>SUBSTRUCTURE
     1 Y9K         1 TEMP              0 ****  ****    0 ROOT
