@<TRIPOS>MOLECULE
Y9O
   54    57     1     0     0
SMALL
abcg2


@<TRIPOS>ATOM
      1 C11        -13.8090     6.9820    46.5750 c3         1 Y9O       0.148300
      2 C13        -11.3990     9.5050    44.0220 ca         1 Y9O      -0.071000
      3 C15        -12.6320    10.5550    41.7640 ca         1 Y9O      -0.143600
      4 C16        -11.3450    10.8670    43.7690 ca         1 Y9O      -0.121000
      5 C17        -12.6600     9.1860    42.0060 ca         1 Y9O      -0.055000
      6 C20        -14.6020     9.9960    48.4810 c          1 Y9O       0.561000
      7 C22        -12.2690     9.3200    47.9180 c3         1 Y9O       0.112300
      8 C24        -13.2200    11.0740    40.4890 c          1 Y9O       0.620700
      9 C27        -14.8200    12.5040    41.7630 c6         1 Y9O       0.059500
     10 C28        -14.8210    14.0170    41.8860 c6         1 Y9O       0.139600
     11 C1         -11.5930     6.3270    42.4070 ca         1 Y9O      -0.053000
     12 C2         -11.6060     4.9540    42.5990 ca         1 Y9O       0.083000
     13 C3         -12.1150     4.3880    43.7600 ca         1 Y9O      -0.020300
     14 C4         -12.6280     5.2540    44.7230 ca         1 Y9O      -0.197000
     15 C5         -12.6310     6.6320    44.5420 ca         1 Y9O       0.154100
     16 C6         -12.0920     7.1880    43.3740 cp         1 Y9O      -0.065000
     17 C7         -12.0630     8.6490    43.1430 cp         1 Y9O      -0.031000
     18 O8         -13.1530     7.5000    45.4330 os         1 Y9O      -0.336100
     19 CL10       -10.9620     3.9330    41.3510 cl         1 Y9O      -0.198000
     20 C12        -14.4080     8.1260    47.3010 cc         1 Y9O       0.353900
     21 C14        -11.9670    11.3970    42.6480 ca         1 Y9O      -0.081000
     22 N18        -15.6780     8.2830    47.4580 n2         1 Y9O      -0.469300
     23 N19        -15.7960     9.4190    48.1810 ns         1 Y9O      -0.368400
     24 N21        -13.6990     9.1260    47.9030 n          1 Y9O      -0.318300
     25 O25        -12.8790    10.5780    39.4240 o          1 Y9O      -0.592100
     26 N26        -14.0820    12.1100    40.5730 n          1 Y9O      -0.411800
     27 O29        -15.3410    14.6240    40.7260 os         1 Y9O      -0.444000
     28 C30        -14.6020    14.2590    39.5830 c6         1 Y9O       0.139600
     29 C31        -14.5850    12.7540    39.3710 c6         1 Y9O       0.059500
     30 H38        -14.6160     6.2960    46.3030 h1         1 Y9O       0.064200
     31 H37        -13.1070     6.4420    47.2210 h1         1 Y9O       0.064200
     32 H39        -10.9000     9.1050    44.8940 ha         1 Y9O       0.115000
     33 H41        -10.8110    11.5190    44.4480 ha         1 Y9O       0.117000
     34 H42        -13.1710     8.5280    41.3130 ha         1 Y9O       0.131000
     35 H44        -11.9970     9.8750    48.8120 h1         1 Y9O       0.054700
     36 H46        -11.7590     8.3600    47.9460 h1         1 Y9O       0.054700
     37 H45        -11.9360     9.8750    47.0430 h1         1 Y9O       0.054700
     38 H48        -15.8500    12.1390    41.6760 h1         1 Y9O       0.063200
     39 H47        -14.3930    12.0600    42.6570 h1         1 Y9O       0.063200
     40 H49        -15.4500    14.3190    42.7240 h1         1 Y9O       0.053200
     41 H50        -13.7980    14.3670    42.0830 h1         1 Y9O       0.053200
     42 H32        -11.1760     6.7390    41.4970 ha         1 Y9O       0.142000
     43 H33        -13.0360     4.8130    45.6240 ha         1 Y9O       0.120000
     44 H34        -11.1120     2.4990    43.9620 hc         1 Y9O       0.052367
     45 H35        -12.5580     2.6670    44.9560 hc         1 Y9O       0.052367
     46 H36        -12.6990     2.3900    43.2210 hc         1 Y9O       0.052367
     47 H40        -11.9210    12.4630    42.4580 ha         1 Y9O       0.119000
     48 H43        -16.7050     9.7660    48.4420 hn         1 Y9O       0.493000
     49 H52        -15.0660    14.7460    38.7240 h1         1 Y9O       0.053200
     50 H51        -13.5670    14.6210    39.6600 h1         1 Y9O       0.053200
     51 H54        -13.9460    12.5120    38.5250 h1         1 Y9O       0.063200
     52 H53        -15.5930    12.3880    39.1480 h1         1 Y9O       0.063200
     53 O23        -14.3660    11.0160    49.1030 o          1 Y9O      -0.557000
     54 C9         -12.1230     2.9080    43.9890 c3         1 Y9O      -0.050800
@<TRIPOS>BOND
     1     1    18 1   
     2     1    20 1   
     3     1    30 1   
     4     1    31 1   
     5     2     4 ar  
     6     2    17 ar  
     7     2    32 1   
     8     3     5 ar  
     9     3     8 1   
    10     3    21 ar  
    11     4    21 ar  
    12     4    33 1   
    13     5    17 ar  
    14     5    34 1   
    15     6    23 1   
    16     6    24 1   
    17     6    53 2   
    18     7    24 1   
    19     7    35 1   
    20     7    36 1   
    21     7    37 1   
    22     8    25 2   
    23     8    26 1   
    24     9    10 1   
    25     9    26 1   
    26     9    38 1   
    27     9    39 1   
    28    10    27 1   
    29    10    40 1   
    30    10    41 1   
    31    11    12 ar  
    32    11    16 ar  
    33    11    42 1   
    34    12    13 ar  
    35    12    19 1   
    36    13    14 ar  
    37    13    54 1   
    38    14    15 ar  
    39    14    43 1   
    40    15    16 ar  
    41    15    18 1   
    42    16    17 1   
    43    20    22 2   
    44    20    24 1   
    45    21    47 1   
    46    22    23 1   
    47    23    48 1   
    48    26    29 1   
    49    27    28 1   
    50    28    29 1   
    51    28    49 1   
    52    28    50 1   
    53    29    51 1   
    54    29    52 1   
    55    44    54 1   
    56    45    54 1   
    57    46    54 1   
@<TRIPOS>SUBSTRUCTURE
     1 Y9O         1 TEMP              0 ****  ****    0 ROOT
