@<TRIPOS>MOLECULE
YAX
  114   122     1     0     0
SMALL
abcg2


@<TRIPOS>ATOM
      1 N3          30.8950     0.0180    10.9270 n7         1 YAX      -0.837400
      2 C4          31.5830    -1.2070    10.5990 c3         1 YAX       0.081800
      3 C5          31.2040    -1.7320     9.2190 c          1 YAX       0.594100
      4 C8          30.9170    -3.8160     7.9180 c6         1 YAX       0.122700
      5 C10         28.5580    -4.5530     8.4600 c6         1 YAX      -0.073900
      6 C13         31.3740    -5.2590     8.1100 c6         1 YAX      -0.092900
      7 C17         26.3690    -7.4270    10.6130 ca         1 YAX       0.037400
      8 C20         26.0280    -9.2710    12.6690 ca         1 YAX       0.158100
      9 C21         24.9280    -8.5770    12.1320 ca         1 YAX      -0.211000
     10 C22         25.0920    -7.6590    11.1070 ca         1 YAX      -0.014000
     11 C24         24.6390   -10.4760    14.1880 c3         1 YAX       0.127600
     12 C28         26.7430   -13.3940    13.1390 c3         1 YAX       0.073000
     13 C1          28.9930    -1.2520    11.9390 cc         1 YAX      -0.111300
     14 C11         29.0210    -6.0000     8.6470 c6         1 YAX      -0.074000
     15 C12         30.4890    -6.0460     9.0750 c6         1 YAX      -0.073900
     16 C14         28.1070    -6.7260     9.5870 cc         1 YAX       0.422800
     17 C16         27.4550    -8.1170    11.1740 ca         1 YAX      -0.040200
     18 C19         27.3170    -9.0450    12.1960 ca         1 YAX      -0.166000
     19 C2          29.4570    -0.1040    11.0890 c3         1 YAX       0.214000
     20 C25         24.7530   -11.5660    15.2290 c3         1 YAX       0.165600
     21 C27         26.2890   -13.3170    14.5960 c3         1 YAX       0.145600
     22 C31         27.8950    -3.1570    12.3660 ca         1 YAX      -0.050200
     23 C32         28.6600    -2.8330    13.5090 ca         1 YAX      -0.102800
     24 C33         29.3470    -1.6160    13.2100 cd         1 YAX      -0.242200
     25 C34         27.0990    -4.2990    12.2960 ca         1 YAX      -0.126000
     26 C35         27.0790    -5.1300    13.4010 ca         1 YAX      -0.092000
     27 C36         27.8290    -4.8270    14.5500 ca         1 YAX      -0.142000
     28 C37         28.6140    -3.6920    14.6140 ca         1 YAX      -0.067000
     29 C39         31.2030   -17.6770    13.3280 cc         1 YAX       0.384800
     30 C40         29.7930   -17.2040    13.4010 c3         1 YAX       0.111200
     31 C42         29.2450   -18.2460    15.4440 ce         1 YAX       0.557500
     32 C43         29.4820   -19.5940    14.8940 cc         1 YAX      -0.201900
     33 C44         30.5840   -19.8850    14.1320 cd         1 YAX      -0.130200
     34 C47         32.8810   -19.0370    13.5660 cc         1 YAX       0.409800
     35 C48         28.6570   -20.7480    15.1040 cc         1 YAX      -0.057300
     36 C49         29.1710   -21.8640    14.5120 cd         1 YAX      -0.206300
     37 C51         28.1930   -15.3610    12.8790 c          1 YAX       0.608100
     38 C52         29.6330   -15.8240    12.7880 c3         1 YAX      -0.139400
     39 C54         33.6920   -20.2400    13.8620 c3         1 YAX      -0.128400
     40 C55         27.3590   -20.7560    15.8510 c3         1 YAX      -0.033800
     41 C56         28.6110   -23.2480    14.5220 c3         1 YAX      -0.021800
     42 C57         28.8370   -18.1500    16.8650 ca         1 YAX      -0.133900
     43 C58         29.3320   -19.0470    17.8080 ca         1 YAX      -0.068500
     44 C59         28.9750   -18.9430    19.1430 ca         1 YAX      -0.114000
     45 C60         28.1020   -17.9390    19.5300 ca         1 YAX       0.131000
     46 C61         27.5960   -17.0330    18.6090 ca         1 YAX      -0.114000
     47 C62         27.9730   -17.1390    17.2810 ca         1 YAX      -0.068500
     48 C9          29.4500    -3.7940     7.4880 c6         1 YAX      -0.092900
     49 N15         28.5460    -7.6460    10.4950 na         1 YAX      -0.315600
     50 N18         26.8120    -6.5730     9.6290 nd         1 YAX      -0.580100
     51 N29         28.0320   -14.0350    13.0260 ns         1 YAX      -0.504900
     52 N30         28.1220    -2.1820    11.4390 na         1 YAX      -0.216700
     53 N38         31.5210   -18.9530    13.7040 na         1 YAX      -0.253800
     54 N41         29.4090   -17.1580    14.8030 n2         1 YAX      -0.573900
     55 N45         33.3290   -17.8930    13.1400 nd         1 YAX      -0.351000
     56 N46         32.2790   -17.0400    12.9960 nd         1 YAX      -0.344000
     57 N6          31.1430    -3.0710     9.1470 ns         1 YAX      -0.514900
     58 O26         24.9650   -12.8510    14.7000 os         1 YAX      -0.456000
     59 O53         27.2570   -16.1430    12.7860 o          1 YAX      -0.609100
     60 O7          31.0170    -0.9970     8.2610 o          1 YAX      -0.586100
     61 S50         30.6410   -21.5340    13.6750 ss         1 YAX       0.251000
     62 CL1         27.6280   -17.8190    21.1900 cl         1 YAX      -0.199000
     63 H1          31.3030     0.4100    11.7640 hn         1 YAX       0.421000
     64 H42         31.4450    -2.0000    11.3470 h1         1 YAX       0.050200
     65 H41         32.6560    -0.9950    10.5730 h1         1 YAX       0.050200
     66 H81         31.5240    -3.3580     7.1320 h1         1 YAX       0.070700
     67 H101        28.5590    -4.0500     9.4310 hc         1 YAX       0.048450
     68 H102        27.5270    -4.5350     8.1040 hc         1 YAX       0.048450
     69 H132        31.3550    -5.7480     7.1320 hc         1 YAX       0.055450
     70 H131        32.4120    -5.2840     8.4500 hc         1 YAX       0.055450
     71 H211        23.9300    -8.7490    12.5110 ha         1 YAX       0.120000
     72 H221        24.2350    -7.1350    10.7040 ha         1 YAX       0.129000
     73 H242        24.2100    -9.5870    14.6660 h1         1 YAX       0.045200
     74 H241        23.9490   -10.7930    13.3980 h1         1 YAX       0.045200
     75 H281        26.8170   -12.3960    12.7100 h1         1 YAX       0.069200
     76 H282        26.0120   -13.9510    12.5530 h1         1 YAX       0.069200
     77 H111        28.9470    -6.5050     7.6730 hc         1 YAX       0.071700
     78 H122        30.8510    -7.0770     9.1000 hc         1 YAX       0.048450
     79 H121        30.5890    -5.6630    10.0970 hc         1 YAX       0.048450
     80 H191        28.1630    -9.5750    12.6150 ha         1 YAX       0.128000
     81 H23         29.0960     0.8370    11.5080 h1         1 YAX       0.068200
     82 H22         28.9920    -0.1900    10.1020 h1         1 YAX       0.068200
     83 H251        25.5210   -11.3020    15.9670 h1         1 YAX       0.054200
     84 H252        23.7980   -11.5930    15.7620 h1         1 YAX       0.054200
     85 H271        26.3310   -14.3220    15.0290 h1         1 YAX       0.045200
     86 H272        26.9840   -12.6920    15.1690 h1         1 YAX       0.045200
     87 H331        30.0320    -1.0820    13.8520 ha         1 YAX       0.199000
     88 H341        26.5310    -4.5370    11.4060 ha         1 YAX       0.129000
     89 H351        26.4790    -6.0310    13.3770 ha         1 YAX       0.116000
     90 H361        27.7910    -5.5000    15.3980 ha         1 YAX       0.108000
     91 H371        29.1890    -3.4710    15.5060 ha         1 YAX       0.111000
     92 H401        29.1660   -17.9200    12.8520 h1         1 YAX       0.090700
     93 H521        29.9140   -15.8570    11.7320 hc         1 YAX       0.079200
     94 H522        30.3070   -15.1160    13.2730 hc         1 YAX       0.079200
     95 H541        34.7450   -19.9680    13.8480 hc         1 YAX       0.064367
     96 H542        33.4540   -20.6520    14.8430 hc         1 YAX       0.064367
     97 H543        33.5390   -21.0240    13.1200 hc         1 YAX       0.064367
     98 H552        27.5030   -20.9590    16.9130 hc         1 YAX       0.052033
     99 H551        26.8410   -19.8010    15.7700 hc         1 YAX       0.052033
    100 H553        26.6930   -21.5240    15.4600 hc         1 YAX       0.052033
    101 H561        29.2110   -23.9360    13.9280 hc         1 YAX       0.051367
    102 H562        28.5620   -23.6430    15.5370 hc         1 YAX       0.051367
    103 H563        27.5990   -23.2600    14.1140 hc         1 YAX       0.051367
    104 H581        30.0120   -19.8350    17.5090 ha         1 YAX       0.130000
    105 H591        29.3720   -19.6400    19.8690 ha         1 YAX       0.131500
    106 H611        26.9120   -16.2560    18.9200 ha         1 YAX       0.131500
    107 H621        27.5760   -16.4390    16.5580 ha         1 YAX       0.130000
    108 H92         29.1050    -2.7640     7.3860 hc         1 YAX       0.055450
    109 H91         29.3810    -4.2450     6.4940 hc         1 YAX       0.055450
    110 H2          29.5020    -7.9240    10.6520 hn         1 YAX       0.356000
    111 H291        28.8510   -13.4610    13.1400 hn         1 YAX       0.313500
    112 H4          27.6970    -2.1360    10.5260 hn         1 YAX       0.352000
    113 H61         31.2900    -3.5920     9.9960 hn         1 YAX       0.313500
    114 O23         25.9180   -10.1870    13.6600 os         1 YAX      -0.357100
@<TRIPOS>BOND
     1     1     2 1   
     2     1    19 1   
     3     1    63 1   
     4     2     3 1   
     5     2    64 1   
     6     2    65 1   
     7     3    57 1   
     8     3    60 2   
     9     4     6 1   
    10     4    48 1   
    11     4    57 1   
    12     4    66 1   
    13     5    14 1   
    14     5    48 1   
    15     5    67 1   
    16     5    68 1   
    17     6    15 1   
    18     6    69 1   
    19     6    70 1   
    20     7    10 ar  
    21     7    17 ar  
    22     7    50 1   
    23     8     9 ar  
    24     8    18 ar  
    25     8   114 1   
    26     9    10 ar  
    27     9    71 1   
    28    10    72 1   
    29    11    20 1   
    30    11    73 1   
    31    11    74 1   
    32    11   114 1   
    33    12    21 1   
    34    12    51 1   
    35    12    75 1   
    36    12    76 1   
    37    13    19 1   
    38    13    24 2   
    39    13    52 1   
    40    14    15 1   
    41    14    16 1   
    42    14    77 1   
    43    15    78 1   
    44    15    79 1   
    45    16    49 1   
    46    16    50 2   
    47    17    18 ar  
    48    17    49 1   
    49    18    80 1   
    50    19    81 1   
    51    19    82 1   
    52    20    58 1   
    53    20    83 1   
    54    20    84 1   
    55    21    58 1   
    56    21    85 1   
    57    21    86 1   
    58    22    23 ar  
    59    22    25 ar  
    60    22    52 1   
    61    23    24 1   
    62    23    28 ar  
    63    24    87 1   
    64    25    26 ar  
    65    25    88 1   
    66    26    27 ar  
    67    26    89 1   
    68    27    28 ar  
    69    27    90 1   
    70    28    91 1   
    71    29    30 1   
    72    29    53 1   
    73    29    56 2   
    74    30    38 1   
    75    30    54 1   
    76    30    92 1   
    77    31    32 1   
    78    31    42 1   
    79    31    54 2   
    80    32    33 2   
    81    32    35 1   
    82    33    53 1   
    83    33    61 1   
    84    34    39 1   
    85    34    53 1   
    86    34    55 2   
    87    35    36 2   
    88    35    40 1   
    89    36    41 1   
    90    36    61 1   
    91    37    38 1   
    92    37    51 1   
    93    37    59 2   
    94    38    93 1   
    95    38    94 1   
    96    39    95 1   
    97    39    96 1   
    98    39    97 1   
    99    40    98 1   
   100    40    99 1   
   101    40   100 1   
   102    41   101 1   
   103    41   102 1   
   104    41   103 1   
   105    42    43 ar  
   106    42    47 ar  
   107    43    44 ar  
   108    43   104 1   
   109    44    45 ar  
   110    44   105 1   
   111    45    46 ar  
   112    45    62 1   
   113    46    47 ar  
   114    46   106 1   
   115    47   107 1   
   116    48   108 1   
   117    48   109 1   
   118    49   110 1   
   119    51   111 1   
   120    52   112 1   
   121    55    56 1   
   122    57   113 1   
@<TRIPOS>SUBSTRUCTURE
     1 YAX         1 TEMP              0 ****  ****    0 ROOT
