@<TRIPOS>MOLECULE
YBR
   20    19     1     0     0
SMALL
abcg2


@<TRIPOS>ATOM
      1 C7         108.9240    26.6090   106.3680 c3         1 YBR       0.170100
      2 N          107.8500    27.4680   105.9270 n7         1 YBR      -0.875400
      3 CA         108.1800    28.3760   104.8420 c3         1 YBR       0.035500
      4 C          106.9800    29.3000   104.5210 c          1 YBR       0.731000
      5 O          106.1070    29.4420   105.4020 o          1 YBR      -0.752000
      6 CB         109.4490    29.2260   105.0480 c3         1 YBR      -0.065400
      7 CG         109.4110    30.1230   106.2750 c3         1 YBR      -0.197400
      8 CD         110.6800    30.9560   106.5490 c          1 YBR       0.714000
      9 OE2        111.7080    30.6910   105.8930 o          1 YBR      -0.771000
     10 O1         110.5750    31.8320   107.4340 o          1 YBR      -0.771000
     11 OXT        107.0040    29.8510   103.4010 o          1 YBR      -0.752000
     12 H1         108.5570    25.9310   107.1400 h1         1 YBR      -0.004300
     13 H4         109.2700    25.9920   105.5350 h1         1 YBR      -0.004300
     14 H3         109.8060    27.1210   106.7760 h1         1 YBR      -0.004300
     15 H          107.4710    27.9970   106.7010 hn         1 YBR       0.428000
     16 HA         108.3610    27.7570   103.9530 h1         1 YBR       0.017700
     17 HB2        110.3250    28.5750   105.1060 hc         1 YBR       0.026700
     18 HB3        109.5970    29.8290   104.1490 hc         1 YBR       0.026700
     19 HG2        108.5570    30.8050   106.2190 hc         1 YBR       0.023700
     20 HG3        109.2250    29.5150   107.1700 hc         1 YBR       0.023700
@<TRIPOS>BOND
     1     1     2 1   
     2     1    12 1   
     3     1    13 1   
     4     1    14 1   
     5     2     3 1   
     6     2    15 1   
     7     3     4 1   
     8     3     6 1   
     9     3    16 1   
    10     4     5 1   
    11     4    11 1   
    12     6     7 1   
    13     6    17 1   
    14     6    18 1   
    15     7     8 1   
    16     7    19 1   
    17     7    20 1   
    18     8     9 1   
    19     8    10 1   
@<TRIPOS>SUBSTRUCTURE
     1 YBR         1 TEMP              0 ****  ****    0 ROOT
