@<TRIPOS>MOLECULE
YCO
   41    44     1     0     0
SMALL
abcg2


@<TRIPOS>ATOM
      1 P            4.7150     1.9930     0.0870 p5         1 YCO       1.272900
      2 N1          -0.6980    -1.2050     0.2290 n          1 YCO      -0.308000
      3 C2          -0.6360    -0.7830    -1.0740 c          1 YCO       0.625000
      4 O2           0.3290    -0.9400    -1.7900 o          1 YCO      -0.501000
      5 N3          -1.7720    -0.1590    -1.5390 ns         1 YCO      -0.597900
      6 C4          -2.9250     0.0910    -0.8480 cc         1 YCO       0.539900
      7 C5          -2.9060    -0.3660     0.5160 cc         1 YCO      -0.040000
      8 C6          -1.8210    -0.9780     1.0040 cd         1 YCO      -0.011400
      9 N7          -3.9060     0.6870    -1.4170 nd         1 YCO      -0.772000
     10 C8          -5.0280     0.8920    -0.6170 ca         1 YCO       0.250000
     11 C9          -6.1450     1.5330    -1.1430 ca         1 YCO      -0.081000
     12 C1           0.4710    -1.8250     0.8550 c5         1 YCO       0.349700
     13 C10         -7.2750     1.7530    -0.3650 ca         1 YCO      -0.137000
     14 C11         -7.2980     1.3320     0.9560 ca         1 YCO      -0.111000
     15 C12         -6.1920     0.6880     1.5020 ca         1 YCO      -0.129000
     16 C13         -5.0750     0.4750     0.7180 ca         1 YCO       0.134000
     17 O14         -4.0080    -0.1590     1.2870 os         1 YCO      -0.303000
     18 C7           1.0350    -3.0640     0.1550 c5         1 YCO      -0.156400
     19 C3           2.4050    -2.6300    -0.3650 c5         1 YCO       0.123300
     20 O3           3.4150    -3.6020    -0.2370 oh         1 YCO      -0.702000
     21 C14          2.7440    -1.4380     0.5300 c5         1 YCO       0.156300
     22 O4           1.5020    -0.8860     0.9450 os         1 YCO      -0.400000
     23 C15          3.5740    -0.3850    -0.1680 c3         1 YCO       0.251600
     24 O5           3.9540     0.6070     0.7330 os         1 YCO      -0.571400
     25 OP1          3.6680     2.6330    -0.8180 o          1 YCO      -0.924833
     26 OP2          5.0200     2.7660     1.3630 o          1 YCO      -0.924833
     27 OP3          5.9350     1.4570    -0.6550 o          1 YCO      -0.924833
     28 HN3         -1.7400     0.1510    -2.5020 hn         1 YCO       0.465000
     29 H6          -1.7780    -1.3290     2.0250 h4         1 YCO       0.214000
     30 H9          -6.1130     1.8570    -2.1750 ha         1 YCO       0.124000
     31 H1           0.1200    -2.0970     1.8530 h2         1 YCO       0.037700
     32 H10         -8.1330     2.2540    -0.7930 ha         1 YCO       0.103000
     33 H11         -8.1710     1.5000     1.5710 ha         1 YCO       0.102000
     34 H12         -6.1980     0.3540     2.5330 ha         1 YCO       0.120000
     35 H2           1.1740    -3.8470     0.9030 hc         1 YCO       0.044200
     36 H2'A         0.3760    -3.4600    -0.6160 hc         1 YCO       0.044200
     37 H3           2.3220    -2.2970    -1.4040 h1         1 YCO       0.073700
     38 HO3          3.3090    -4.2400    -0.9480 ho         1 YCO       0.479000
     39 H4           3.2900    -1.8110     1.4110 h1         1 YCO       0.058700
     40 H5           4.4440    -0.8950    -0.6080 h1         1 YCO       0.014700
     41 H5'A         2.9860     0.0150    -1.0060 h1         1 YCO       0.014700
@<TRIPOS>BOND
     1     1    24 1   
     2     1    25 1   
     3     1    26 1   
     4     1    27 1   
     5     2     3 1   
     6     2     8 1   
     7     2    12 1   
     8     3     4 2   
     9     3     5 1   
    10     5     6 1   
    11     5    28 1   
    12     6     7 1   
    13     6     9 2   
    14     7     8 2   
    15     7    17 1   
    16     8    29 1   
    17     9    10 1   
    18    10    11 ar  
    19    10    16 ar  
    20    11    13 ar  
    21    11    30 1   
    22    12    18 1   
    23    12    22 1   
    24    12    31 1   
    25    13    14 ar  
    26    13    32 1   
    27    14    15 ar  
    28    14    33 1   
    29    15    16 ar  
    30    15    34 1   
    31    16    17 1   
    32    18    19 1   
    33    18    35 1   
    34    18    36 1   
    35    19    20 1   
    36    19    21 1   
    37    19    37 1   
    38    20    38 1   
    39    21    22 1   
    40    21    23 1   
    41    21    39 1   
    42    23    24 1   
    43    23    40 1   
    44    23    41 1   
@<TRIPOS>SUBSTRUCTURE
     1 YCO         1 TEMP              0 ****  ****    0 ROOT
