@<TRIPOS>MOLECULE
YD5
   20    19     1     0     0
SMALL
abcg2


@<TRIPOS>ATOM
      1 C4          17.0650    36.6240   -29.6320 c          1 YD5       0.722000
      2 O           13.8940    32.0030   -29.5550 o          1 YD5      -0.763500
      3 O5          16.4880    37.4750   -28.9210 o          1 YD5      -0.756000
      4 CA          15.1180    34.0090   -29.1330 c3         1 YD5       0.043500
      5 C           14.8670    32.4950   -28.9450 c          1 YD5       0.723000
      6 C41         14.3530    34.7550   -28.0300 c3         1 YD5      -0.102100
      7 N           14.7720    34.4040   -30.4880 n7         1 YD5      -0.866400
      8 C32         16.3650    36.2590   -30.9580 c3         1 YD5      -0.194400
      9 C33         14.9110    35.8050   -30.8450 c3         1 YD5       0.198800
     10 HA          16.1860    34.1910   -28.9900 h1         1 YD5       0.087700
     11 H4          14.6360    34.3830   -27.0440 hc         1 YD5       0.014367
     12 H5          14.5600    35.8240   -28.0480 hc         1 YD5       0.014367
     13 H6          13.2760    34.6110   -28.1450 hc         1 YD5       0.014367
     14 H           13.8240    34.0980   -30.6650 hn         1 YD5       0.397000
     15 H9          16.9300    35.4980   -31.5040 hc         1 YD5       0.007700
     16 H10         16.3780    37.1620   -31.5800 hc         1 YD5       0.007700
     17 H11         14.3770    36.4980   -30.1780 h1         1 YD5      -0.013800
     18 H12         14.4410    35.9160   -31.8260 h1         1 YD5      -0.013800
     19 O3          18.1610    36.0770   -29.3890 o          1 YD5      -0.756000
     20 OXT         15.6280    31.9000   -28.1550 o          1 YD5      -0.763500
@<TRIPOS>BOND
     1     1     3 1   
     2     1     8 1   
     3     1    19 1   
     4     2     5 1   
     5     4     5 1   
     6     4     6 1   
     7     4     7 1   
     8     4    10 1   
     9     5    20 1   
    10     6    11 1   
    11     6    12 1   
    12     6    13 1   
    13     7     9 1   
    14     7    14 1   
    15     8     9 1   
    16     8    15 1   
    17     8    16 1   
    18     9    17 1   
    19     9    18 1   
@<TRIPOS>SUBSTRUCTURE
     1 YD5         1 TEMP              0 ****  ****    0 ROOT
