@<TRIPOS>MOLECULE
YDS
   43    44     1     0     0
SMALL
abcg2


@<TRIPOS>ATOM
      1 C11        -14.4120     6.4040    47.0000 c3         1 YDS       0.159300
      2 C15        -14.4080     9.5490    48.8460 c          1 YDS       0.561000
      3 C18        -12.3260     8.3980    48.0840 c3         1 YDS       0.110300
      4 C19        -11.5300     8.5810    43.0980 c          1 YDS       0.610100
      5 C21        -11.7880    10.0900    43.1650 c3         1 YDS      -0.121000
      6 C22        -12.3150    10.5150    41.7880 c3         1 YDS      -0.088100
      7 C23        -12.7930    10.5180    44.2340 c3         1 YDS      -0.088100
      8 C24        -10.4470    10.7810    43.4380 c3         1 YDS      -0.088100
      9 C1         -11.5680     4.1730    43.5310 ca         1 YDS      -0.019000
     10 C2         -12.3980     3.6480    44.5110 ca         1 YDS      -0.065000
     11 C3         -13.1560     4.5090    45.2870 ca         1 YDS      -0.174000
     12 C4         -13.0800     5.8780    45.0840 ca         1 YDS       0.099100
     13 C5         -12.2440     6.4180    44.0810 ca         1 YDS      -0.037000
     14 C6         -11.4890     5.5510    43.3090 ca         1 YDS      -0.078000
     15 C7         -10.7740     3.3020    42.7280 cg         1 YDS       0.326000
     16 N8         -10.1290     2.6020    42.0770 n1         1 YDS      -0.448000
     17 N9         -12.2510     7.8050    43.9500 ns         1 YDS      -0.143000
     18 O10        -13.7730     6.7850    45.7910 os         1 YDS      -0.367100
     19 C12        -14.7140     7.6520    47.7370 cc         1 YDS       0.343900
     20 N13        -15.9030     8.0590    48.0190 n2         1 YDS      -0.462300
     21 N14        -15.7180     9.2100    48.7000 ns         1 YDS      -0.368400
     22 N16        -13.7610     8.5070    48.2130 n          1 YDS      -0.324300
     23 O20        -10.7240     8.1230    42.3080 o          1 YDS      -0.584100
     24 H30        -15.3430     5.8660    46.8060 h1         1 YDS       0.068700
     25 H29        -13.7560     5.7600    47.5950 h1         1 YDS       0.068700
     26 H32        -11.8620     9.0280    48.8370 h1         1 YDS       0.056367
     27 H34        -12.0090     7.3720    48.2550 h1         1 YDS       0.056367
     28 H33        -11.9900     8.7180    47.0990 h1         1 YDS       0.056367
     29 H36        -12.4810    11.5930    41.7770 hc         1 YDS       0.044922
     30 H35        -11.6070    10.2770    40.9950 hc         1 YDS       0.044922
     31 H37        -13.2650    10.0290    41.5570 hc         1 YDS       0.044922
     32 H38        -12.9050    11.6030    44.2050 hc         1 YDS       0.044922
     33 H39        -13.7870    10.0970    44.0700 hc         1 YDS       0.044922
     34 H40        -12.4640    10.2620    45.2440 hc         1 YDS       0.044922
     35 H41        -10.5870    11.8630    43.4330 hc         1 YDS       0.044922
     36 H43        -10.0450    10.5020    44.4140 hc         1 YDS       0.044922
     37 H42         -9.7040    10.5370    42.6800 hc         1 YDS       0.044922
     38 H25        -12.4590     2.5810    44.6720 ha         1 YDS       0.130000
     39 H26        -13.8090     4.0950    46.0440 ha         1 YDS       0.123000
     40 H27        -10.8360     5.9320    42.5420 ha         1 YDS       0.168000
     41 H28        -12.8800     8.2810    44.5780 hn         1 YDS       0.173000
     42 H31        -16.5080     9.7350    49.0400 hn         1 YDS       0.495000
     43 O17        -13.9140    10.5160    49.3960 o          1 YDS      -0.553000
@<TRIPOS>BOND
     1     1    18 1   
     2     1    19 1   
     3     1    24 1   
     4     1    25 1   
     5     2    21 1   
     6     2    22 1   
     7     2    43 2   
     8     3    22 1   
     9     3    26 1   
    10     3    27 1   
    11     3    28 1   
    12     4     5 1   
    13     4    17 1   
    14     4    23 2   
    15     5     6 1   
    16     5     7 1   
    17     5     8 1   
    18     6    29 1   
    19     6    30 1   
    20     6    31 1   
    21     7    32 1   
    22     7    33 1   
    23     7    34 1   
    24     8    35 1   
    25     8    36 1   
    26     8    37 1   
    27     9    10 ar  
    28     9    14 ar  
    29     9    15 1   
    30    10    11 ar  
    31    10    38 1   
    32    11    12 ar  
    33    11    39 1   
    34    12    13 ar  
    35    12    18 1   
    36    13    14 ar  
    37    13    17 1   
    38    14    40 1   
    39    15    16 3   
    40    17    41 1   
    41    19    20 2   
    42    19    22 1   
    43    20    21 1   
    44    21    42 1   
@<TRIPOS>SUBSTRUCTURE
     1 YDS         1 TEMP              0 ****  ****    0 ROOT
