@<TRIPOS>MOLECULE
YE1
   98   101     1     0     0
SMALL
abcg2


@<TRIPOS>ATOM
      1 N1A        -75.2890    34.4410   -23.5650 nb         1 YE1      -0.336000
      2 C2A        -74.6570    35.2950   -24.3660 ca         1 YE1       0.118900
      3 N3A        -73.3860    35.2960   -24.7270 nb         1 YE1      -0.163000
      4 C4A        -72.7140    34.2910   -24.1720 ca         1 YE1       0.098500
      5 C5A        -73.2320    33.3330   -23.3120 ca         1 YE1      -0.082600
      6 C6A        -74.6030    33.4320   -23.0200 ca         1 YE1       0.401900
      7 N6A        -75.2350    32.5730   -22.2080 nv         1 YE1      -1.082900
      8 N7A        -72.2560    32.4490   -22.9280 nc         1 YE1      -0.643100
      9 C8A        -71.1830    32.8620   -23.5400 cd         1 YE1       0.489700
     10 N9A        -71.3930    33.9720   -24.3100 na         1 YE1      -0.251300
     11 C1         -70.4000    34.6880   -25.0840 c5         1 YE1       0.268300
     12 C2         -69.3220    35.3650   -24.2280 c5         1 YE1       0.109300
     13 O2         -69.6950    36.6250   -23.7550 oh         1 YE1      -0.660000
     14 C3         -68.1400    35.4110   -25.1970 c5         1 YE1       0.248300
     15 O3         -68.2390    36.5210   -26.0250 os         1 YE1      -0.572400
     16 P3         -66.7550    37.1210   -26.6780 p5         1 YE1       1.271900
     17 O7A        -67.2840    38.1500   -27.6660 o          1 YE1      -0.901833
     18 O8A        -66.0840    35.8990   -27.3020 o          1 YE1      -0.901833
     19 O9A        -66.0180    37.6830   -25.4670 o          1 YE1      -0.901833
     20 C4         -68.3340    34.1010   -25.9830 c5         1 YE1       0.104300
     21 O4         -69.7340    33.7850   -25.9110 os         1 YE1      -0.485000
     22 C5         -67.5140    32.9280   -25.4930 c3         1 YE1       0.223600
     23 O5         -67.8100    32.6460   -24.1420 os         1 YE1      -0.643400
     24 P1A        -66.6810    32.5470   -22.9650 p5         1 YE1       1.485800
     25 O1A        -67.4400    32.8250   -21.6890 o          1 YE1      -0.827500
     26 O2A        -65.4700    33.3500   -23.3090 o          1 YE1      -0.827500
     27 O3A        -66.3630    30.9460   -23.0840 os         1 YE1      -0.725800
     28 P2A        -65.6880    29.9790   -21.9210 p5         1 YE1       1.471800
     29 O4A        -64.7140    30.7720   -21.1140 o          1 YE1      -0.852500
     30 O5A        -65.3220    28.7170   -22.6330 o          1 YE1      -0.852500
     31 O6A        -66.9560    29.7120   -20.9230 os         1 YE1      -0.609400
     32 C11        -69.2200    29.1470   -20.3260 c3         1 YE1      -0.070000
     33 C12        -68.1000    29.0110   -21.3610 c3         1 YE1       0.250600
     34 C14        -68.8240    28.3980   -19.0520 c3         1 YE1      -0.072600
     35 C13        -70.4670    28.5030   -20.9350 c3         1 YE1      -0.072600
     36 C10        -69.4520    30.6610   -20.0480 c3         1 YE1       0.155300
     37 O10        -69.5490    31.3810   -21.2390 oh         1 YE1      -0.764000
     38 C9P        -70.7060    30.8890   -19.2060 c          1 YE1       0.583100
     39 O9P        -70.7510    30.5800   -18.0190 o          1 YE1      -0.688100
     40 N8P        -71.7380    31.4470   -19.8520 ns         1 YE1      -0.496900
     41 C7P        -73.0170    31.6660   -19.2240 c3         1 YE1       0.117000
     42 C6P        -73.8660    30.3950   -19.1890 c3         1 YE1      -0.185400
     43 C5P        -75.2040    30.6190   -18.5220 c          1 YE1       0.602100
     44 O5P        -75.3200    31.3060   -17.5150 o          1 YE1      -0.621100
     45 N4P        -76.2480    29.9990   -19.1010 ns         1 YE1      -0.518900
     46 C3P        -77.5770    30.0040   -18.5370 c3         1 YE1       0.085000
     47 C2P        -77.7280    28.9770   -17.4130 c3         1 YE1       0.071000
     48 OAD        -80.0310    27.6620   -18.3440 o          1 YE1      -0.598100
     49 CAB        -80.0980    28.3480   -17.3350 c          1 YE1       0.597100
     50 NAA        -79.0440    29.0040   -16.8220 ns         1 YE1      -0.501900
     51 CAC        -81.3950    28.4980   -16.5560 c3         1 YE1      -0.117100
     52 CAF        -82.5190    28.9230   -17.4610 ca         1 YE1      -0.006300
     53 CAG        -83.4190    27.9880   -17.9520 ca         1 YE1      -0.228000
     54 CAE        -82.6340    30.2620   -17.8170 ca         1 YE1      -0.228000
     55 CAJ        -83.6580    30.6630   -18.6720 ca         1 YE1       0.170100
     56 OAL        -83.8190    31.9460   -19.0510 oh         1 YE1      -0.539100
     57 CAI        -84.5680    29.7340   -19.1670 ca         1 YE1      -0.200000
     58 CAH        -84.4440    28.3990   -18.8030 ca         1 YE1       0.170100
     59 OAK        -85.3500    27.5370   -19.3030 oh         1 YE1      -0.539100
     60 HC2        -75.2710    36.0910   -24.7750 h5         1 YE1       0.015100
     61 HN61       -76.2390    32.6100   -22.1440 hn         1 YE1       0.476500
     62 HN62       -74.7920    31.7090   -21.9500 hn         1 YE1       0.476500
     63 HC8        -70.2140    32.3960   -23.4740 h5         1 YE1       0.138800
     64 H1         -70.9510    35.4420   -25.6590 h2         1 YE1       0.090700
     65 H2         -69.0580    34.6950   -23.4020 h1         1 YE1       0.061700
     66 HO2        -70.2750    36.5000   -22.9980 ho         1 YE1       0.453000
     67 H3         -67.1920    35.3900   -24.6440 h1         1 YE1       0.099700
     68 H4         -68.0620    34.2720   -27.0260 h1         1 YE1       0.103700
     69 H5'1       -67.7310    32.0420   -26.1000 h1         1 YE1       0.037700
     70 H5'2       -66.4600    33.1750   -25.6400 h1         1 YE1       0.037700
     71 H121       -68.4470    29.3830   -22.3300 h1         1 YE1       0.016200
     72 H122       -67.8750    27.9450   -21.4870 h1         1 YE1       0.016200
     73 H141       -68.5700    27.3630   -19.2930 hc         1 YE1       0.018200
     74 H142       -67.9560    28.8480   -18.5680 hc         1 YE1       0.018200
     75 H143       -69.6330    28.3760   -18.3250 hc         1 YE1       0.018200
     76 H131       -71.2890    28.4560   -20.2180 hc         1 YE1       0.018200
     77 H132       -70.8160    29.0450   -21.8150 hc         1 YE1       0.018200
     78 H133       -70.2560    27.4760   -21.2430 hc         1 YE1       0.018200
     79 H10        -68.6130    31.0200   -19.4370 h1         1 YE1       0.089700
     80 HO10       -68.7290    31.9260   -21.3790 ho         1 YE1       0.560000
     81 HPN8       -71.6410    31.6700   -20.8340 hn         1 YE1       0.378500
     82 HC71       -72.8710    32.0460   -18.2140 h1         1 YE1       0.056200
     83 HC72       -73.5330    32.4430   -19.7890 h1         1 YE1       0.056200
     84 HC61       -73.9870    30.0020   -20.2000 hc         1 YE1       0.067200
     85 HC62       -73.3370    29.6270   -18.6170 hc         1 YE1       0.067200
     86 HPN4       -76.0800    29.4150   -19.9030 hn         1 YE1       0.317500
     87 HC31       -77.8120    31.0010   -18.1630 h1         1 YE1       0.054700
     88 HC32       -78.2820    29.7820   -19.3370 h1         1 YE1       0.054700
     89 HC21       -77.5170    27.9770   -17.7940 h1         1 YE1       0.064200
     90 HC22       -77.0040    29.1840   -16.6250 h1         1 YE1       0.064200
     91 HNAA       -79.1820    29.5890   -16.0140 hn         1 YE1       0.310500
     92 HAC1       -81.2840    29.2100   -15.7360 hc         1 YE1       0.056700
     93 HAC2       -81.6190    27.5280   -16.1070 hc         1 YE1       0.056700
     94 HAG        -83.3290    26.9460   -17.6670 ha         1 YE1       0.113000
     95 HAE        -81.9310    30.9920   -17.4280 ha         1 YE1       0.113000
     96 HOAL       -83.1430    32.5020   -18.6470 ho         1 YE1       0.464000
     97 HAI        -85.3670    30.0500   -19.8260 ha         1 YE1       0.134000
     98 HOAK       -85.1680    26.6420   -18.9950 ho         1 YE1       0.464000
@<TRIPOS>BOND
     1     1     2 ar  
     2     1     6 ar  
     3     2     3 ar  
     4     2    60 1   
     5     3     4 ar  
     6     4     5 ar  
     7     4    10 1   
     8     5     6 ar  
     9     5     8 1   
    10     6     7 1   
    11     7    61 1   
    12     7    62 1   
    13     8     9 2   
    14     9    10 1   
    15     9    63 1   
    16    10    11 1   
    17    11    12 1   
    18    11    21 1   
    19    11    64 1   
    20    12    13 1   
    21    12    14 1   
    22    12    65 1   
    23    13    66 1   
    24    14    15 1   
    25    14    20 1   
    26    14    67 1   
    27    15    16 1   
    28    16    17 1   
    29    16    18 1   
    30    16    19 1   
    31    20    21 1   
    32    20    22 1   
    33    20    68 1   
    34    22    23 1   
    35    22    69 1   
    36    22    70 1   
    37    23    24 1   
    38    24    25 1   
    39    24    26 1   
    40    24    27 1   
    41    27    28 1   
    42    28    29 1   
    43    28    30 1   
    44    28    31 1   
    45    31    33 1   
    46    32    33 1   
    47    32    34 1   
    48    32    35 1   
    49    32    36 1   
    50    33    71 1   
    51    33    72 1   
    52    34    73 1   
    53    34    74 1   
    54    34    75 1   
    55    35    76 1   
    56    35    77 1   
    57    35    78 1   
    58    36    37 1   
    59    36    38 1   
    60    36    79 1   
    61    37    80 1   
    62    38    39 2   
    63    38    40 1   
    64    40    41 1   
    65    40    81 1   
    66    41    42 1   
    67    41    82 1   
    68    41    83 1   
    69    42    43 1   
    70    42    84 1   
    71    42    85 1   
    72    43    44 2   
    73    43    45 1   
    74    45    46 1   
    75    45    86 1   
    76    46    47 1   
    77    46    87 1   
    78    46    88 1   
    79    47    50 1   
    80    47    89 1   
    81    47    90 1   
    82    48    49 2   
    83    49    50 1   
    84    49    51 1   
    85    50    91 1   
    86    51    52 1   
    87    51    92 1   
    88    51    93 1   
    89    52    53 ar  
    90    52    54 ar  
    91    53    58 ar  
    92    53    94 1   
    93    54    55 ar  
    94    54    95 1   
    95    55    56 1   
    96    55    57 ar  
    97    56    96 1   
    98    57    58 ar  
    99    57    97 1   
   100    58    59 1   
   101    59    98 1   
@<TRIPOS>SUBSTRUCTURE
     1 YE1         1 TEMP              0 ****  ****    0 ROOT
