@<TRIPOS>MOLECULE
YN1
   78    79     1     0     0
SMALL
abcg2


@<TRIPOS>ATOM
      1 C13          0.5240     0.8730    -0.6840 c3         1 YN1       0.043700
      2 C01          4.8130     1.2320     0.8070 c3         1 YN1      -0.107700
      3 C03          3.9510    -0.0410     0.6940 c3         1 YN1       0.106700
      4 C04          4.7060    -1.2840     0.2230 c3         1 YN1      -0.068400
      5 C05          3.8480    -2.5410     0.2690 c5         1 YN1      -0.139700
      6 C06          4.5930    -3.7770    -0.2300 c          1 YN1       0.555000
      7 C08          3.2480    -4.4950     1.5730 c5         1 YN1       0.100000
      8 C09          3.3430    -2.9640     1.6570 c5         1 YN1      -0.093400
      9 C12          1.5450     0.3920     0.3500 c          1 YN1       0.582100
     10 C14          0.6630     2.3970    -0.8640 c3         1 YN1      -0.086400
     11 C15         -0.1670     2.9710    -2.0170 c3         1 YN1      -0.056700
     12 C16         -0.2390     4.4950    -1.9050 c3         1 YN1      -0.089100
     13 C17          0.3920     2.5550    -3.3780 c3         1 YN1      -0.089100
     14 C21         -3.9090    -1.0360    -1.0230 c3         1 YN1       0.188600
     15 C22         -5.1390    -1.0240    -0.1370 c6         1 YN1      -0.070700
     16 C23         -5.6590     0.3940     0.1170 c6         1 YN1      -0.069400
     17 C24         -6.9300     0.3860     0.9660 c6         1 YN1      -0.069900
     18 C25         -8.0400    -0.4730     0.3500 c6         1 YN1      -0.061700
     19 C26         -9.2930    -0.4630     1.2300 c3         1 YN1      -0.072400
     20 C27        -10.5290    -1.1100     0.6060 c3         1 YN1      -0.075400
     21 C28        -11.7610    -1.0080     1.5030 c3         1 YN1      -0.089100
     22 C29         -7.5120    -1.8880     0.0880 c6         1 YN1      -0.069900
     23 C30         -6.2410    -1.8850    -0.7630 c6         1 YN1      -0.069400
     24 N07          4.2460    -4.8130     0.5570 ns         1 YN1      -0.525900
     25 N11          2.7860     0.2210    -0.1340 ns         1 YN1      -0.485900
     26 N18         -0.8040     0.5070    -0.2450 ns         1 YN1      -0.484900
     27 O10          5.3610    -3.8260    -1.1880 o          1 YN1      -0.554000
     28 O20         -2.8360    -0.3700    -0.3220 os         1 YN1      -0.474100
     29 O31         -1.5470    -0.4340    -2.1920 o          1 YN1      -0.555000
     30 O32          1.2320     0.2230     1.5290 o          1 YN1      -0.646100
     31 H1           0.7100     0.3670    -1.6290 h1         1 YN1       0.096700
     32 S1           5.6380     1.7400    -0.7550 s6         1 YN1       1.310600
     33 H3           4.1590     2.0620     1.0750 h2         1 YN1       0.087700
     34 H4           3.5760    -0.2150     1.7030 h1         1 YN1       0.065700
     35 H5           5.0700    -1.1360    -0.7930 hc         1 YN1       0.076700
     36 H6           5.5800    -1.4220     0.8640 hc         1 YN1       0.076700
     37 H7           2.9960    -2.4140    -0.4090 hc         1 YN1       0.076700
     38 H8           3.4850    -4.9850     2.5160 h1         1 YN1       0.034200
     39 H9           2.2540    -4.8210     1.2530 h1         1 YN1       0.034200
     40 H10          4.0800    -2.6820     2.4120 hc         1 YN1       0.064700
     41 H11          2.3920    -2.5070     1.9230 hc         1 YN1       0.064700
     42 H12          0.3650     2.8680     0.0780 hc         1 YN1       0.061700
     43 H13          1.7170     2.6420    -1.0250 hc         1 YN1       0.061700
     44 H14         -1.1860     2.5810    -1.9270 hc         1 YN1       0.042700
     45 H15          0.7610     4.9350    -1.9630 hc         1 YN1       0.034200
     46 H16         -0.8380     4.9180    -2.7140 hc         1 YN1       0.034200
     47 H17         -0.6850     4.8000    -0.9550 hc         1 YN1       0.034200
     48 H18          1.4060     2.9440    -3.5090 hc         1 YN1       0.034200
     49 H19          0.4320     1.4700    -3.4910 hc         1 YN1       0.034200
     50 H20         -0.2270     2.9490    -4.1870 hc         1 YN1       0.034200
     51 H21         -3.5960    -2.0580    -1.2500 h1         1 YN1       0.048700
     52 H22         -4.1000    -0.5140    -1.9620 h1         1 YN1       0.048700
     53 H23         -4.8660    -1.4720     0.8270 hc         1 YN1       0.060700
     54 H24         -4.8860     0.9970     0.5990 hc         1 YN1       0.043950
     55 H25         -5.8720     0.8640    -0.8500 hc         1 YN1       0.043950
     56 H26         -6.6960    -0.0030     1.9650 hc         1 YN1       0.037950
     57 H27         -7.2920     1.4090     1.1060 hc         1 YN1       0.037950
     58 H28         -8.3030    -0.0290    -0.6200 hc         1 YN1       0.043700
     59 H29         -9.0640    -0.9620     2.1790 hc         1 YN1       0.036700
     60 H30         -9.5340     0.5760     1.4810 hc         1 YN1       0.036700
     61 H31        -10.7360    -0.6290    -0.3570 hc         1 YN1       0.037200
     62 H32        -10.3300    -2.1620     0.3880 hc         1 YN1       0.037200
     63 H33        -11.5870    -1.5030     2.4620 hc         1 YN1       0.029700
     64 H34        -12.0100     0.0370     1.7100 hc         1 YN1       0.029700
     65 H35        -12.6330    -1.4740     1.0400 hc         1 YN1       0.029700
     66 H36         -7.2980    -2.3650     1.0520 hc         1 YN1       0.037950
     67 H37         -8.2760    -2.4960    -0.4010 hc         1 YN1       0.037950
     68 H38         -6.4740    -1.4940    -1.7600 hc         1 YN1       0.043950
     69 H39         -5.8800    -2.9090    -0.9010 hc         1 YN1       0.043950
     70 H40          4.5270    -5.7570     0.3390 hn         1 YN1       0.313500
     71 H41          2.9800     0.4640    -1.0970 hn         1 YN1       0.359500
     72 H42         -1.0220     0.6410     0.7310 hn         1 YN1       0.340500
     73 H43          6.5770     0.7030     1.4040 ho         1 YN1       0.452000
     74 O1           6.8800     0.9520    -0.7670 o          1 YN1      -0.685867
     75 O2           4.7200     1.3950    -1.8490 o          1 YN1      -0.685867
     76 O3           5.8740     3.1800    -0.6340 o          1 YN1      -0.685867
     77 C19         -1.7060    -0.1260    -1.0200 c          1 YN1       0.639100
     78 O02          5.7980     1.1150     1.8100 oh         1 YN1      -0.644000
@<TRIPOS>BOND
     1     1     9 1   
     2     1    10 1   
     3     1    26 1   
     4     1    31 1   
     5     2     3 1   
     6     2    32 1   
     7     2    33 1   
     8     2    78 1   
     9     3     4 1   
    10     3    25 1   
    11     3    34 1   
    12     4     5 1   
    13     4    35 1   
    14     4    36 1   
    15     5     6 1   
    16     5     8 1   
    17     5    37 1   
    18     6    24 1   
    19     6    27 2   
    20     7     8 1   
    21     7    24 1   
    22     7    38 1   
    23     7    39 1   
    24     8    40 1   
    25     8    41 1   
    26     9    25 1   
    27     9    30 2   
    28    10    11 1   
    29    10    42 1   
    30    10    43 1   
    31    11    12 1   
    32    11    13 1   
    33    11    44 1   
    34    12    45 1   
    35    12    46 1   
    36    12    47 1   
    37    13    48 1   
    38    13    49 1   
    39    13    50 1   
    40    14    15 1   
    41    14    28 1   
    42    14    51 1   
    43    14    52 1   
    44    15    16 1   
    45    15    23 1   
    46    15    53 1   
    47    16    17 1   
    48    16    54 1   
    49    16    55 1   
    50    17    18 1   
    51    17    56 1   
    52    17    57 1   
    53    18    19 1   
    54    18    22 1   
    55    18    58 1   
    56    19    20 1   
    57    19    59 1   
    58    19    60 1   
    59    20    21 1   
    60    20    61 1   
    61    20    62 1   
    62    21    63 1   
    63    21    64 1   
    64    21    65 1   
    65    22    23 1   
    66    22    66 1   
    67    22    67 1   
    68    23    68 1   
    69    23    69 1   
    70    24    70 1   
    71    25    71 1   
    72    26    72 1   
    73    26    77 1   
    74    28    77 1   
    75    29    77 2   
    76    32    74 1   
    77    32    75 1   
    78    32    76 1   
    79    73    78 1   
@<TRIPOS>SUBSTRUCTURE
     1 YN1         1 TEMP              0 ****  ****    0 ROOT
