@<TRIPOS>MOLECULE
YXS
   91    93     1     0     0
SMALL
abcg2


@<TRIPOS>ATOM
      1 O33         20.1780    28.0660    13.7550 o          1 YXS      -0.928167
      2 P3          19.5060    27.3250    14.9010 p5         1 YXS       1.276900
      3 O31         19.3330    28.1280    16.1890 o          1 YXS      -0.928167
      4 O32         18.2870    26.4900    14.5210 o          1 YXS      -0.928167
      5 O3          20.7180    26.1540    15.2750 os         1 YXS      -0.574400
      6 C3          20.4550    25.2830    16.3230 c5         1 YXS       0.250300
      7 C2          21.2950    24.0220    16.1460 c5         1 YXS       0.109300
      8 O2          21.3550    23.5830    14.8220 oh         1 YXS      -0.661000
      9 C1          22.6430    24.4940    16.7030 c5         1 YXS       0.268300
     10 N9          23.4870    23.4130    17.1610 na         1 YXS      -0.250300
     11 C4          24.6370    22.9670    16.5750 ca         1 YXS       0.098500
     12 N3          25.2650    23.4570    15.5090 nb         1 YXS      -0.167000
     13 C7          26.3540    22.7670    15.2210 ca         1 YXS       0.121900
     14 N1          26.8520    21.7070    15.8520 nb         1 YXS      -0.330000
     15 C6          26.2130    21.2290    16.9240 ca         1 YXS       0.406900
     16 N6          26.7070    20.1520    17.5510 nv         1 YXS      -1.080900
     17 C5          25.0300    21.8710    17.3300 ca         1 YXS      -0.084600
     18 N7          24.1430    21.6470    18.3530 nc         1 YXS      -0.640100
     19 C8          23.2450    22.5810    18.2160 cd         1 YXS       0.478700
     20 O4          22.3420    25.3270    17.7790 os         1 YXS      -0.485000
     21 C9          20.9940    25.8160    17.6640 c5         1 YXS       0.102300
     22 C10         20.1950    25.4270    18.8880 c3         1 YXS       0.224600
     23 O5          20.1080    24.0210    19.0010 os         1 YXS      -0.637400
     24 P1          18.7310    23.2330    19.3960 p5         1 YXS       1.490800
     25 O11         17.5340    23.9510    18.8710 o          1 YXS      -0.833000
     26 O12         18.9960    21.7970    19.0090 o          1 YXS      -0.833000
     27 O6          18.8250    23.3940    21.0210 os         1 YXS      -0.726800
     28 P2          18.0870    22.4520    22.1650 p5         1 YXS       1.474800
     29 O21         18.2440    23.2110    23.4430 o          1 YXS      -0.857500
     30 O22         16.7600    21.9900    21.6580 o          1 YXS      -0.857500
     31 O7          19.0390    21.1210    22.1800 os         1 YXS      -0.609400
     32 CPB         20.3880    21.2010    22.5950 c3         1 YXS       0.248600
     33 CPA         21.1330    19.9150    22.2240 c3         1 YXS      -0.068000
     34 CP9         20.5780    18.7550    23.0510 c3         1 YXS      -0.073600
     35 CP8         22.6050    20.1370    22.5780 c3         1 YXS      -0.073600
     36 CP7         20.9570    19.6560    20.7010 c3         1 YXS       0.152300
     37 OP3         21.2080    20.8120    19.9580 oh         1 YXS      -0.760000
     38 CP6         21.8520    18.5210    20.2060 c          1 YXS       0.582100
     39 OP2         21.6130    17.3480    20.4770 o          1 YXS      -0.685100
     40 NP2         22.8910    18.8920    19.4460 ns         1 YXS      -0.494900
     41 CP5         23.7870    17.9420    18.8400 c3         1 YXS       0.113000
     42 CP4         24.8860    17.4510    19.7890 c3         1 YXS      -0.183400
     43 CP3         25.7660    16.4480    19.0780 c          1 YXS       0.597100
     44 OP1         25.2970    15.4330    18.5800 o          1 YXS      -0.618100
     45 NP1         27.0760    16.7460    19.0120 ns         1 YXS      -0.516900
     46 CP2         28.0200    15.9280    18.2860 c3         1 YXS       0.106000
     47 CP1         27.9840    16.2220    16.7890 c3         1 YXS       0.030600
     48 S           28.9910    15.0620    15.8340 ss         1 YXS      -0.346600
     49 CS1         30.6150    15.7310    16.0490 c          1 YXS       0.651700
     50 OS1         30.8210    16.7450    16.6650 o          1 YXS      -0.538100
     51 CS2         31.7100    14.9370    15.3760 c3         1 YXS      -0.409700
     52 CS3         31.4190    14.5520    13.9340 c3         1 YXS      -0.040100
     53 SS4         32.1050    13.4560    16.3890 s6         1 YXS       1.323600
     54 O56         33.4050    13.0020    15.8690 o          1 YXS      -0.686533
     55 OS5         32.1600    13.9570    17.7730 o          1 YXS      -0.686533
     56 OS4         31.0110    12.5020    16.1490 o          1 YXS      -0.686533
     57 H3          19.3870    25.0390    16.4030 h1         1 YXS       0.095700
     58 H4          20.8980    23.2420    16.8060 h1         1 YXS       0.059700
     59 H5          21.6770    22.6770    14.8220 ho         1 YXS       0.453000
     60 H6          23.2110    25.0130    15.9210 h2         1 YXS       0.095700
     61 H7          26.9210    23.1070    14.3610 h5         1 YXS       0.016100
     62 H8          27.6210    19.8140    17.3010 hn         1 YXS       0.480500
     63 H9          26.3620    19.9040    18.4620 hn         1 YXS       0.480500
     64 H10         22.3890    22.7140    18.8580 h5         1 YXS       0.134800
     65 H11         21.0130    26.9080    17.6270 h1         1 YXS       0.107700
     66 H12         20.6720    25.8370    19.7850 h1         1 YXS       0.032700
     67 H13         19.2090    25.8920    18.8010 h1         1 YXS       0.032700
     68 H16         20.4470    21.3300    23.6820 h1         1 YXS       0.016200
     69 H17         20.8920    22.0600    22.1410 h1         1 YXS       0.016200
     70 H18         20.6380    18.9940    24.1150 hc         1 YXS       0.018867
     71 H19         19.5320    18.5540    22.8150 hc         1 YXS       0.018867
     72 H20         21.1360    17.8350    22.8900 hc         1 YXS       0.018867
     73 H21         22.7070    20.4380    23.6230 hc         1 YXS       0.018867
     74 H22         23.1920    19.2250    22.4520 hc         1 YXS       0.018867
     75 H23         23.0590    20.9170    21.9660 hc         1 YXS       0.018867
     76 H24         19.9300    19.3050    20.5420 h1         1 YXS       0.085700
     77 H25         20.3550    21.1610    19.5870 ho         1 YXS       0.556000
     78 H26         23.0380    19.8730    19.2470 hn         1 YXS       0.375500
     79 H27         23.2190    17.0880    18.4710 h1         1 YXS       0.054700
     80 H28         24.2400    18.4270    17.9750 h1         1 YXS       0.054700
     81 H29         25.4590    18.3000    20.1680 hc         1 YXS       0.060200
     82 H30         24.4290    16.9570    20.6490 hc         1 YXS       0.060200
     83 H31         27.4020    17.6160    19.3990 hn         1 YXS       0.306500
     84 H32         27.7970    14.8760    18.4620 h1         1 YXS       0.065200
     85 H33         29.0140    16.1220    18.6860 h1         1 YXS       0.065200
     86 H34         28.2960    17.2440    16.5730 h1         1 YXS       0.082700
     87 H35         26.9720    16.0930    16.4040 h1         1 YXS       0.082700
     88 H36         32.6080    15.5590    15.4230 h1         1 YXS       0.090700
     89 H37         31.2030    15.4370    13.3370 hc         1 YXS       0.032700
     90 H38         32.2890    14.0620    13.4990 hc         1 YXS       0.032700
     91 H39         30.5730    13.8710    13.8500 hc         1 YXS       0.032700
@<TRIPOS>BOND
     1     1     2 1   
     2     2     3 1   
     3     2     4 1   
     4     2     5 1   
     5     5     6 1   
     6     6     7 1   
     7     6    21 1   
     8     6    57 1   
     9     7     8 1   
    10     7     9 1   
    11     7    58 1   
    12     8    59 1   
    13     9    10 1   
    14     9    20 1   
    15     9    60 1   
    16    10    11 1   
    17    10    19 1   
    18    11    12 ar  
    19    11    17 ar  
    20    12    13 ar  
    21    13    14 ar  
    22    13    61 1   
    23    14    15 ar  
    24    15    16 1   
    25    15    17 ar  
    26    16    62 1   
    27    16    63 1   
    28    17    18 1   
    29    18    19 2   
    30    19    64 1   
    31    20    21 1   
    32    21    22 1   
    33    21    65 1   
    34    22    23 1   
    35    22    66 1   
    36    22    67 1   
    37    23    24 1   
    38    24    25 1   
    39    24    26 1   
    40    24    27 1   
    41    27    28 1   
    42    28    29 1   
    43    28    30 1   
    44    28    31 1   
    45    31    32 1   
    46    32    33 1   
    47    32    68 1   
    48    32    69 1   
    49    33    34 1   
    50    33    35 1   
    51    33    36 1   
    52    34    70 1   
    53    34    71 1   
    54    34    72 1   
    55    35    73 1   
    56    35    74 1   
    57    35    75 1   
    58    36    37 1   
    59    36    38 1   
    60    36    76 1   
    61    37    77 1   
    62    38    39 2   
    63    38    40 1   
    64    40    41 1   
    65    40    78 1   
    66    41    42 1   
    67    41    79 1   
    68    41    80 1   
    69    42    43 1   
    70    42    81 1   
    71    42    82 1   
    72    43    44 2   
    73    43    45 1   
    74    45    46 1   
    75    45    83 1   
    76    46    47 1   
    77    46    84 1   
    78    46    85 1   
    79    47    48 1   
    80    47    86 1   
    81    47    87 1   
    82    48    49 1   
    83    49    50 2   
    84    49    51 1   
    85    51    52 1   
    86    51    53 1   
    87    51    88 1   
    88    52    89 1   
    89    52    90 1   
    90    52    91 1   
    91    53    54 1   
    92    53    55 1   
    93    53    56 1   
@<TRIPOS>SUBSTRUCTURE
     1 YXS         1 TEMP              0 ****  ****    0 ROOT
