@<TRIPOS>MOLECULE
61J
   32    32     1     0     0
SMALL
abcg2


@<TRIPOS>ATOM
      1 C2         -23.0490    72.9820    47.1330 c6         1 61J       0.142300
      2 C3         -24.5330    73.3080    46.9310 c6         1 61J       0.114300
      3 C4         -25.1960    72.1200    46.2380 c6         1 61J       0.133300
      4 C5         -24.4570    71.7710    44.9490 c6         1 61J       0.153300
      5 C6         -22.9640    71.5430    45.2230 c6         1 61J       0.173300
      6 O6         -22.4350    72.6700    45.8970 os         1 61J      -0.445000
      7 C1         -22.2680    74.1220    47.7560 c3         1 61J      -0.088100
      8 O02        -24.7350    74.4590    46.1460 oh         1 61J      -0.697000
      9 O4         -26.5420    72.3550    45.8960 oh         1 61J      -0.657000
     10 O5         -24.9820    70.6180    44.3390 oh         1 61J      -0.702000
     11 C7         -22.6390    70.2220    45.9200 c3         1 61J      -0.139400
     12 C8         -21.1520    70.1010    46.2260 c3         1 61J       0.228600
     13 O8         -20.8330    68.8260    46.7570 os         1 61J      -0.603400
     14 P01        -20.1620    67.6900    45.7510 p5         1 61J       1.241800
     15 O06        -18.8280    68.1850    45.2620 o          1 61J      -0.828000
     16 O07        -21.1840    67.2000    44.7610 o          1 61J      -0.828000
     17 H1         -22.9990    72.1230    47.8170 h1         1 61J       0.048700
     18 H31        -24.9850    73.4280    47.9270 h1         1 61J       0.017700
     19 H4         -25.1200    71.2650    46.9250 h1         1 61J       0.049700
     20 H5         -24.5350    72.6330    44.2700 h1         1 61J       0.057700
     21 H6         -22.4450    71.5310    44.2590 h1         1 61J       0.091700
     22 H6A        -22.7210    74.4160    48.7030 hc         1 61J       0.040033
     23 H7A        -21.2400    73.8200    47.9600 hc         1 61J       0.040033
     24 H8         -22.2370    74.9960    47.1050 hc         1 61J       0.040033
     25 H9         -24.5530    75.2360    46.6830 ho         1 61J       0.493000
     26 HO4        -27.0760    72.3230    46.6960 ho         1 61J       0.437000
     27 HO5        -25.9310    70.7480    44.2360 ho         1 61J       0.508000
     28 H7         -23.2130    70.0810    46.8390 hc         1 61J       0.066200
     29 H13        -22.9220    69.4080    45.2520 hc         1 61J       0.066200
     30 H81        -20.8540    70.8440    46.9700 h1         1 61J       0.021700
     31 H82        -20.5700    70.3190    45.3220 h1         1 61J       0.021700
     32 H16        -19.9800    66.7220    46.7750 hp         1 61J      -0.196400
@<TRIPOS>BOND
     1     1     2 1   
     2     1     6 1   
     3     1     7 1   
     4     1    17 1   
     5     2     3 1   
     6     2     8 1   
     7     2    18 1   
     8     3     4 1   
     9     3     9 1   
    10     3    19 1   
    11     4     5 1   
    12     4    10 1   
    13     4    20 1   
    14     5     6 1   
    15     5    11 1   
    16     5    21 1   
    17     7    22 1   
    18     7    23 1   
    19     7    24 1   
    20     8    25 1   
    21     9    26 1   
    22    10    27 1   
    23    11    12 1   
    24    11    28 1   
    25    11    29 1   
    26    12    13 1   
    27    12    30 1   
    28    12    31 1   
    29    13    14 1   
    30    14    15 1   
    31    14    16 1   
    32    14    32 1   
@<TRIPOS>SUBSTRUCTURE
     1 61J         1 TEMP              0 ****  ****    0 ROOT
