@<TRIPOS>MOLECULE
64P
   38    39     1     0     0
SMALL
abcg2


@<TRIPOS>ATOM
      1 P            3.2340   -17.5500    -0.1480 p5         1 64P       1.270900
      2 OP2          2.6730   -16.1880     0.2680 o          1 64P      -0.921500
      3 OP1          4.6760   -17.5330    -0.6280 o          1 64P      -0.921500
      4 O5           3.3940   -18.4200     1.3270 os         1 64P      -0.563400
      5 C5           2.2480   -18.6190     2.0860 c3         1 64P       0.260600
      6 C4           2.5960   -18.8590     3.5390 c5         1 64P       0.111300
      7 O4           3.2780   -17.7310     4.0720 os         1 64P      -0.404000
      8 C3           1.3610   -19.0560     4.4290 c5         1 64P       0.125300
      9 O3           0.9490   -20.3920     4.5520 oh         1 64P      -0.739000
     10 C2           1.8370   -18.5150     5.7670 c5         1 64P      -0.131400
     11 C1           2.8960   -17.4700     5.4000 c5         1 64P       0.335700
     12 N1           2.4480   -16.0930     5.4890 n          1 64P      -0.403800
     13 C9           2.9470   -15.2870     6.4510 c          1 64P       0.631000
     14 O2           3.7190   -15.6330     7.3260 o          1 64P      -0.611000
     15 N3           2.5070   -13.9660     6.4020 ns         1 64P      -0.486500
     16 C8           1.8950   -13.3290     5.3540 c          1 64P       0.535000
     17 O1           1.6120   -12.1540     5.4100 o          1 64P      -0.575000
     18 C7           1.6440   -14.2090     4.1330 c6         1 64P       0.109200
     19 C5M          2.8930   -14.1560     3.2490 c3         1 64P      -0.103100
     20 C6           1.3810   -15.6270     4.6270 c6         1 64P       0.100000
     21 N5           0.4980   -13.7920     3.3590 n8         1 64P      -0.957200
     22 H5           1.5650   -17.7580     2.0370 h1         1 64P      -0.007800
     23 H5'A         1.6660   -19.4920     1.7440 h1         1 64P      -0.007800
     24 H4           3.2360   -19.7490     3.6310 h1         1 64P       0.050700
     25 H3           0.5360   -18.4360     4.0470 h1         1 64P       0.040700
     26 HO3          0.5500   -20.6670     3.7210 ho         1 64P       0.514000
     27 H2           1.0400   -18.1030     6.3860 hc         1 64P       0.051200
     28 H2'A         2.3100   -19.3230     6.3290 hc         1 64P       0.051200
     29 H1           3.7590   -17.5500     6.0600 h2         1 64P       0.079700
     30 HN3          2.7870   -13.3940     7.1890 hn         1 64P       0.311500
     31 H5M          2.7660   -14.8130     2.3860 hc         1 64P       0.079700
     32 H5MA         3.0580   -13.1400     2.8860 hc         1 64P       0.079700
     33 H5MB         3.7910   -14.4650     3.7830 hc         1 64P       0.079700
     34 H6           1.3170   -16.2740     3.7560 h1         1 64P       0.073200
     35 H6A          0.4160   -15.6690     5.1470 h1         1 64P       0.073200
     36 HN5         -0.3280   -13.7330     3.9430 hn         1 64P       0.395500
     37 HN5A         0.6490   -12.8630     2.9850 hn         1 64P       0.395500
     38 OP3          2.2790   -18.3900    -0.9890 o          1 64P      -0.921500
@<TRIPOS>BOND
     1     1     2 1   
     2     1     3 1   
     3     1     4 1   
     4     1    38 1   
     5     4     5 1   
     6     5     6 1   
     7     5    22 1   
     8     5    23 1   
     9     6     7 1   
    10     6     8 1   
    11     6    24 1   
    12     7    11 1   
    13     8     9 1   
    14     8    10 1   
    15     8    25 1   
    16     9    26 1   
    17    10    11 1   
    18    10    27 1   
    19    10    28 1   
    20    11    12 1   
    21    11    29 1   
    22    12    13 1   
    23    12    20 1   
    24    13    14 2   
    25    13    15 1   
    26    15    16 1   
    27    15    30 1   
    28    16    17 2   
    29    16    18 1   
    30    18    19 1   
    31    18    20 1   
    32    18    21 1   
    33    19    31 1   
    34    19    32 1   
    35    19    33 1   
    36    20    34 1   
    37    20    35 1   
    38    21    36 1   
    39    21    37 1   
@<TRIPOS>SUBSTRUCTURE
     1 64P         1 TEMP              0 ****  ****    0 ROOT
