@<TRIPOS>MOLECULE
68Z
   38    40     1     0     0
SMALL
abcg2


@<TRIPOS>ATOM
      1 P          -10.9280   -13.5400    26.2160 p5         1 68Z       1.311900
      2 O1P        -10.4850   -12.1110    25.9420 o          1 68Z      -0.889833
      3 O2P        -11.8230   -13.7580    27.4210 o          1 68Z      -0.889833
      4 O5         -11.9600   -13.9580    24.9240 os         1 68Z      -0.593400
      5 C5         -11.3850   -13.9380    23.6440 c3         1 68Z       0.224600
      6 C4         -12.1720   -14.7490    22.6110 c5         1 68Z      -0.063700
      7 C3         -12.4860   -16.1810    23.0470 c5         1 68Z       0.169300
      8 C2         -11.2010   -16.9430    22.7580 c5         1 68Z      -0.130400
      9 C1         -10.7500   -16.3830    21.4010 c5         1 68Z       0.132700
     10 C6         -11.2990   -14.9320    21.3490 c5         1 68Z      -0.080400
     11 N9          -9.3230   -16.5040    21.1530 n          1 68Z      -0.286000
     12 C9          -8.3130   -16.0450    21.9540 cc         1 68Z       0.343200
     13 N3          -8.4830   -15.4240    23.1120 nc         1 68Z      -0.688300
     14 C10         -7.3730   -15.0750    23.7360 cd         1 68Z       0.735800
     15 N2          -7.4670   -14.4540    24.9050 nv         1 68Z      -1.020200
     16 N1          -6.1460   -15.3320    23.1880 ns         1 68Z      -0.473400
     17 C11         -5.9050   -15.9850    21.9670 c          1 68Z       0.619200
     18 O6          -4.7580   -16.1710    21.5760 o          1 68Z      -0.638000
     19 C7          -7.1180   -16.3480    21.3500 cd         1 68Z      -0.351600
     20 N7          -7.4250   -17.0040    20.1630 ns         1 68Z      -0.479600
     21 C8          -8.7740   -17.1090    20.0230 c          1 68Z       0.579000
     22 O8          -9.3930   -17.6240    19.1070 o          1 68Z      -0.629000
     23 O3         -13.5490   -16.6370    22.2250 oh         1 68Z      -0.689000
     24 O3P         -9.7680   -14.5640    26.1330 o          1 68Z      -0.889833
     25 H5'1       -11.3200   -12.9100    23.2530 h1         1 68Z       0.016700
     26 H5'2       -10.3650   -14.3240    23.6680 h1         1 68Z       0.016700
     27 H4         -13.1060   -14.2300    22.3760 hc         1 68Z       0.048700
     28 H3'A       -12.7640   -16.2370    24.1050 h1         1 68Z       0.089700
     29 H6'1       -11.8770   -14.7900    20.4360 hc         1 68Z       0.037700
     30 H6'2       -10.4870   -14.2010    21.3170 hc         1 68Z       0.037700
     31 H2'1       -10.4720   -16.7270    23.5380 hc         1 68Z       0.066700
     32 H2'2       -11.3430   -18.0260    22.7340 hc         1 68Z       0.066700
     33 H3         -13.6870   -17.5720    22.4090 ho         1 68Z       0.413000
     34 H1         -11.2200   -16.9630    20.6090 h1         1 68Z       0.058700
     35 H21N        -8.4220   -14.4300    25.4000 hn         1 68Z       0.535500
     36 H22N        -6.6320   -14.2530    25.4300 hn         1 68Z       0.535500
     37 H8          -5.3190   -15.0500    23.6980 hn         1 68Z       0.302500
     38 H7          -6.7660   -17.3620    19.4910 hn         1 68Z       0.449000
@<TRIPOS>BOND
     1     1     2 1   
     2     1     3 1   
     3     1     4 1   
     4     1    24 1   
     5     4     5 1   
     6     5     6 1   
     7     5    25 1   
     8     5    26 1   
     9     6     7 1   
    10     6    10 1   
    11     6    27 1   
    12     7     8 1   
    13     7    23 1   
    14     7    28 1   
    15     8     9 1   
    16     8    31 1   
    17     8    32 1   
    18     9    10 1   
    19     9    11 1   
    20     9    34 1   
    21    10    29 1   
    22    10    30 1   
    23    11    12 1   
    24    11    21 1   
    25    12    13 1   
    26    12    19 2   
    27    13    14 2   
    28    14    15 1   
    29    14    16 1   
    30    15    35 1   
    31    15    36 1   
    32    16    17 1   
    33    16    37 1   
    34    17    18 2   
    35    17    19 1   
    36    19    20 1   
    37    20    21 1   
    38    20    38 1   
    39    21    22 2   
    40    23    33 1   
@<TRIPOS>SUBSTRUCTURE
     1 68Z         1 TEMP              0 ****  ****    0 ROOT
