@<TRIPOS>MOLECULE
6A1
   51    54     1     0     0
SMALL
abcg2


@<TRIPOS>ATOM
      1 CAA        -18.9840   -17.9230    14.2600 c3         1 6A1       0.145900
      2 OAP        -20.3940   -18.0280    14.4560 os         1 6A1      -0.343100
      3 CAQ        -21.1570   -16.9180    14.2610 ca         1 6A1       0.132100
      4 CAK        -22.5240   -17.0740    14.4490 ca         1 6A1      -0.093000
      5 CAF        -20.6420   -15.6710    13.8930 ca         1 6A1      -0.144000
      6 CAI        -21.5020   -14.5970    13.7160 ca         1 6A1      -0.093000
      7 CAV        -22.8700   -14.7450    13.8980 ca         1 6A1      -0.031000
      8 CAU        -23.4050   -16.0040    14.2740 ca         1 6A1      -0.043000
      9 CAS        -24.8380   -16.1750    14.4610 cc         1 6A1       0.186100
     10 OAD        -25.2740   -17.4170    14.7910 oh         1 6A1      -0.545100
     11 CAW        -25.6760   -15.1190    14.2950 cd         1 6A1      -0.198300
     12 CAX        -25.1160   -13.8780    13.9220 cd         1 6A1      -0.135000
     13 NAY        -23.7650   -13.6820    13.7190 na         1 6A1       0.039200
     14 CAJ        -23.6260   -12.3700    13.3330 cd         1 6A1       0.372700
     15 NAN        -24.8040   -11.7600    13.2870 nc         1 6A1      -0.535300
     16 CAT        -25.7440   -12.6930    13.6510 cc         1 6A1       0.001400
     17 CAH        -27.2300   -12.5920    13.7580 c6         1 6A1       0.026800
     18 CAG        -27.7430   -13.7130    14.6930 c6         1 6A1      -0.097400
     19 CAR        -27.1880   -15.1270    14.3790 c6         1 6A1       0.240800
     20 NAO        -27.6340   -16.2020    15.2910 n7         1 6A1      -0.901400
     21 CAL        -27.5130   -15.9500    16.7280 c3         1 6A1       0.142800
     22 CAM        -28.6970   -15.2610    17.4100 c3         1 6A1       0.092600
     23 NAZ        -29.6610   -16.2110    18.0930 n4         1 6A1      -0.334700
     24 CAB        -30.8020   -15.4310    18.6670 c3         1 6A1       0.072900
     25 CAC        -30.1590   -17.2940    17.1910 c3         1 6A1       0.072900
     26 OAE        -28.9090   -16.7860    19.1550 oh         1 6A1      -0.392300
     27 H1         -18.5820   -18.9120    14.4590 h1         1 6A1       0.049033
     28 H2         -18.7520   -17.6330    13.2350 h1         1 6A1       0.049033
     29 H3         -18.5450   -17.2030    14.9520 h1         1 6A1       0.049033
     30 H4         -22.9110   -18.0410    14.7330 ha         1 6A1       0.150000
     31 H5         -19.5850   -15.5260    13.7420 ha         1 6A1       0.133000
     32 H6         -21.0960   -13.6380    13.4310 ha         1 6A1       0.130000
     33 H7         -26.2450   -17.3120    14.9690 ho         1 6A1       0.492000
     34 H8         -22.6740   -11.9230    13.1130 h5         1 6A1       0.077800
     35 H9         -27.5380   -11.6250    14.1580 hc         1 6A1       0.064700
     36 H10        -27.6960   -12.6880    12.7730 hc         1 6A1       0.064700
     37 H11        -27.4630   -13.4450    15.7130 hc         1 6A1       0.028700
     38 H12        -28.8310   -13.7530    14.6490 hc         1 6A1       0.028700
     39 H13        -27.5690   -15.4160    13.3950 h1         1 6A1       0.082700
     40 H14        -28.5590   -16.5140    15.0300 hn         1 6A1       0.421000
     41 H16        -27.2970   -16.8860    17.2410 h1         1 6A1       0.100700
     42 H17        -26.6380   -15.3230    16.8840 h1         1 6A1       0.100700
     43 H18        -29.3050   -14.7030    16.7070 hx         1 6A1       0.105200
     44 H19        -28.3670   -14.5980    18.2030 hx         1 6A1       0.105200
     45 H20        -31.4390   -16.1210    19.2120 hx         1 6A1       0.106200
     46 H21        -30.3920   -14.6750    19.3260 hx         1 6A1       0.106200
     47 H22        -31.3440   -14.9810    17.8420 hx         1 6A1       0.106200
     48 H23        -30.8550   -17.9040    17.7580 hx         1 6A1       0.106200
     49 H24        -30.6630   -16.8230    16.3520 hx         1 6A1       0.106200
     50 H25        -29.3150   -17.8880    16.8630 hx         1 6A1       0.106200
     51 H26        -29.5000   -17.4190    19.5940 ho         1 6A1       0.491000
@<TRIPOS>BOND
     1     1     2 1   
     2     1    27 1   
     3     1    28 1   
     4     1    29 1   
     5     2     3 1   
     6     3     4 ar  
     7     3     5 ar  
     8     4     8 ar  
     9     4    30 1   
    10     5     6 ar  
    11     5    31 1   
    12     6     7 ar  
    13     6    32 1   
    14     7     8 ar  
    15     7    13 1   
    16     8     9 1   
    17     9    10 1   
    18     9    11 2   
    19    10    33 1   
    20    11    12 1   
    21    11    19 1   
    22    12    13 1   
    23    12    16 2   
    24    13    14 1   
    25    14    15 2   
    26    14    34 1   
    27    15    16 1   
    28    16    17 1   
    29    17    18 1   
    30    17    35 1   
    31    17    36 1   
    32    18    19 1   
    33    18    37 1   
    34    18    38 1   
    35    19    20 1   
    36    19    39 1   
    37    20    21 1   
    38    20    40 1   
    39    21    22 1   
    40    21    41 1   
    41    21    42 1   
    42    22    23 1   
    43    22    43 1   
    44    22    44 1   
    45    23    24 1   
    46    23    25 1   
    47    23    26 1   
    48    24    45 1   
    49    24    46 1   
    50    24    47 1   
    51    25    48 1   
    52    25    49 1   
    53    25    50 1   
    54    26    51 1   
@<TRIPOS>SUBSTRUCTURE
     1 6A1         1 TEMP              0 ****  ****    0 ROOT
