@<TRIPOS>MOLECULE
6CP
   45    48     1     0     0
SMALL
abcg2


@<TRIPOS>ATOM
      1 C2           8.2770    43.7420    49.8120 ca         1 6CP       0.411900
      2 C8          10.8190    46.4710    52.0220 cc         1 6CP       0.442700
      3 C10          5.2280    45.1980    52.0580 c3         1 6CP       0.177600
      4 C11          4.3540    45.8590    53.1040 c6         1 6CP      -0.071700
      5 C12          4.7710    45.4810    54.5290 c6         1 6CP      -0.069900
      6 C13          3.8440    46.1040    55.5740 c6         1 6CP      -0.073400
      7 C14          2.3830    45.7320    55.3180 c6         1 6CP      -0.075400
      8 C15          1.9590    46.1060    53.8970 c6         1 6CP      -0.073400
      9 C16          2.8880    45.4830    52.8530 c6         1 6CP      -0.069900
     10 C19          5.7250    40.6540    46.9590 ca         1 6CP       0.158000
     11 C20          4.5140    40.7580    47.6300 ca         1 6CP      -0.137000
     12 C21          4.4720    41.5730    48.7540 ca         1 6CP      -0.077000
     13 C22          5.5900    42.2640    49.2030 ca         1 6CP      -0.144000
     14 N1           7.2700    44.2400    50.5540 nb         1 6CP      -0.317000
     15 C6           7.5370    45.1750    51.4510 ca         1 6CP       0.423300
     16 O6           6.5810    45.6980    52.2120 os         1 6CP      -0.472300
     17 C5           8.8490    45.6180    51.5970 ca         1 6CP      -0.261200
     18 N7           9.5160    46.5330    52.3840 na         1 6CP      -0.284600
     19 N9          11.0580    45.5910    51.0650 nd         1 6CP      -0.651700
     20 C4           9.8290    45.0390    50.7810 ca         1 6CP       0.291000
     21 N3           9.5650    44.0900    49.8740 nb         1 6CP      -0.212000
     22 N2           7.9920    42.7780    48.8720 nu         1 6CP      -0.934900
     23 C17          6.8030    42.1480    48.5120 ca         1 6CP       0.340000
     24 C18          6.8580    41.3270    47.3740 ca         1 6CP      -0.170000
     25 H8          11.5630    47.0940    52.4900 h5         1 6CP       0.068800
     26 H101         4.8880    45.4290    51.0490 h1         1 6CP       0.055700
     27 H102         5.2390    44.1160    52.1820 h1         1 6CP       0.055700
     28 H11          4.4510    46.9440    52.9890 hc         1 6CP       0.060700
     29 H121         5.8030    45.7860    54.7100 hc         1 6CP       0.042700
     30 H122         4.7410    44.3900    54.6220 hc         1 6CP       0.042700
     31 H131         3.9490    47.1930    55.5420 hc         1 6CP       0.040950
     32 H132         4.1460    45.7880    56.5750 hc         1 6CP       0.040950
     33 H141         1.7340    46.2220    56.0460 hc         1 6CP       0.040700
     34 H142         2.2570    44.6540    55.4570 hc         1 6CP       0.040700
     35 H151         0.9310    45.7910    53.7120 hc         1 6CP       0.040950
     36 H152         1.9810    47.1950    53.7890 hc         1 6CP       0.040950
     37 H161         2.7910    44.3930    52.8890 hc         1 6CP       0.042700
     38 H162         2.5920    45.7950    51.8490 hc         1 6CP       0.042700
     39 H20          3.6420    40.2240    47.2850 ha         1 6CP       0.131000
     40 H21          3.5430    41.6720    49.2980 ha         1 6CP       0.114000
     41 H22          5.5270    42.8880    50.0750 ha         1 6CP       0.144000
     42 H7           9.1220    47.1350    53.0890 hn         1 6CP       0.370000
     43 H2           8.8020    42.5130    48.3350 hn         1 6CP       0.516000
     44 H18          7.7830    41.2240    46.8250 ha         1 6CP       0.130000
     45 CL1          5.8260    39.6410    45.5310 cl         1 6CP      -0.215000
@<TRIPOS>BOND
     1     1    14 ar  
     2     1    21 ar  
     3     1    22 1   
     4     2    18 1   
     5     2    19 2   
     6     2    25 1   
     7     3     4 1   
     8     3    16 1   
     9     3    26 1   
    10     3    27 1   
    11     4     5 1   
    12     4     9 1   
    13     4    28 1   
    14     5     6 1   
    15     5    29 1   
    16     5    30 1   
    17     6     7 1   
    18     6    31 1   
    19     6    32 1   
    20     7     8 1   
    21     7    33 1   
    22     7    34 1   
    23     8     9 1   
    24     8    35 1   
    25     8    36 1   
    26     9    37 1   
    27     9    38 1   
    28    10    11 ar  
    29    10    24 ar  
    30    10    45 1   
    31    11    12 ar  
    32    11    39 1   
    33    12    13 ar  
    34    12    40 1   
    35    13    23 ar  
    36    13    41 1   
    37    14    15 ar  
    38    15    16 1   
    39    15    17 ar  
    40    17    18 1   
    41    17    20 ar  
    42    18    42 1   
    43    19    20 1   
    44    20    21 ar  
    45    22    23 1   
    46    22    43 1   
    47    23    24 ar  
    48    24    44 1   
@<TRIPOS>SUBSTRUCTURE
     1 6CP         1 TEMP              0 ****  ****    0 ROOT
