@<TRIPOS>MOLECULE
6F7
   34    35     1     0     0
SMALL
abcg2


@<TRIPOS>ATOM
      1 N1         211.5940   215.6570   234.1130 n          1 6F7      -0.321000
      2 C2         212.6350   214.8090   233.8280 c          1 6F7       0.603000
      3 N3         213.5060   215.2730   232.8790 ns         1 6F7      -0.473500
      4 C4         213.4740   216.4930   232.2240 c          1 6F7       0.581200
      5 C5         212.3680   217.3450   232.6050 cc         1 6F7      -0.280400
      6 C5M        212.2430   218.6900   231.9660 c3         1 6F7      -0.037900
      7 C6         211.4900   216.8860   233.5190 cd         1 6F7       0.022600
      8 O2         212.7800   213.7310   234.3720 o          1 6F7      -0.618000
      9 O4         214.3310   216.7760   231.4060 o          1 6F7      -0.585000
     10 C1         210.6240   215.1940   235.1290 c5         1 6F7       0.349700
     11 C7         211.1100   215.5070   236.5510 c5         1 6F7       0.110300
     12 O3         210.6070   214.4820   237.3750 oh         1 6F7      -0.720000
     13 C3         210.4340   216.8480   236.8030 c5         1 6F7      -0.146400
     14 C8         209.0990   216.6660   236.0990 c5         1 6F7       0.154300
     15 O6         209.4120   215.8440   234.9600 os         1 6F7      -0.420000
     16 C9         208.3590   217.9150   235.6720 c3         1 6F7       0.247600
     17 O5         209.1330   218.7430   234.8660 os         1 6F7      -0.593400
     18 P          208.2850   219.8220   233.8070 p5         1 6F7       1.262900
     19 OP1        207.4390   220.6830   234.7380 o          1 6F7      -0.915500
     20 OP2        209.4550   220.5400   233.1430 o          1 6F7      -0.915500
     21 O1         207.4840   218.9000   232.8940 o          1 6F7      -0.915500
     22 H1         214.2740   214.6530   232.6540 hn         1 6F7       0.310500
     23 H2         211.3660   219.2230   232.3330 hc         1 6F7       0.062700
     24 H3         213.1220   219.3060   232.1670 hc         1 6F7       0.062700
     25 H4         212.1570   218.6070   230.8810 hc         1 6F7       0.062700
     26 H5         210.6480   217.4880   233.8340 h4         1 6F7       0.308000
     27 H6         210.5060   214.1190   234.9780 h2         1 6F7       0.091700
     28 H7         212.2020   215.5670   236.6050 h1         1 6F7       0.044700
     29 H8         210.7520   214.7330   238.2930 ho         1 6F7       0.491000
     30 H9         211.0130   217.6580   236.3530 hc         1 6F7       0.068700
     31 H10        210.3240   217.0720   237.8650 hc         1 6F7       0.068700
     32 H11        208.4180   216.1040   236.7520 h1         1 6F7       0.014700
     33 H12        208.0410   218.4140   236.6000 h1         1 6F7       0.012700
     34 H13        207.4350   217.6000   235.1680 h1         1 6F7       0.012700
@<TRIPOS>BOND
     1     1     2 1   
     2     1     7 1   
     3     1    10 1   
     4     2     3 1   
     5     2     8 2   
     6     3     4 1   
     7     3    22 1   
     8     4     5 1   
     9     4     9 2   
    10     5     6 1   
    11     5     7 2   
    12     6    23 1   
    13     6    24 1   
    14     6    25 1   
    15     7    26 1   
    16    10    11 1   
    17    10    15 1   
    18    10    27 1   
    19    11    12 1   
    20    11    13 1   
    21    11    28 1   
    22    12    29 1   
    23    13    14 1   
    24    13    30 1   
    25    13    31 1   
    26    14    15 1   
    27    14    16 1   
    28    14    32 1   
    29    16    17 1   
    30    16    33 1   
    31    16    34 1   
    32    17    18 1   
    33    18    19 1   
    34    18    20 1   
    35    18    21 1   
@<TRIPOS>SUBSTRUCTURE
     1 6F7         1 TEMP              0 ****  ****    0 ROOT
