@<TRIPOS>MOLECULE
6G0
   52    54     1     0     0
SMALL
abcg2


@<TRIPOS>ATOM
      1 C1         -74.4740    72.4770   -21.7950 cc         1 6G0       0.616800
      2 C2         -73.1250    68.6100   -20.2590 cc         1 6G0       0.061700
      3 N1         -73.1320    72.7410   -21.7830 ns         1 6G0      -0.461400
      4 N2         -75.2890    73.4380   -22.2140 nv         1 6G0      -1.078200
      5 N3         -74.9750    71.3180   -21.4190 nd         1 6G0      -0.654100
      6 C3         -74.0520    70.4450   -21.0290 cd         1 6G0       0.098400
      7 C4         -72.6890    70.6170   -20.9910 cc         1 6G0      -0.407600
      8 C5         -72.1190    71.8650   -21.3840 c          1 6G0       0.635600
      9 O1         -73.8500    61.8880   -26.0000 o          1 6G0      -0.803167
     10 P1         -74.0010    60.7660   -24.9810 p5         1 6G0       1.347900
     11 O2         -72.7240    60.0140   -24.6410 o          1 6G0      -0.803167
     12 O3         -75.2420    59.9020   -25.1500 o          1 6G0      -0.803167
     13 O4         -74.3950    61.5940   -23.4880 os         1 6G0      -0.725800
     14 P2         -73.8760    63.0200   -23.0060 p5         1 6G0       1.586800
     15 O5         -74.8710    64.0910   -23.4310 o          1 6G0      -0.887000
     16 O6         -72.4250    63.2770   -23.2670 o          1 6G0      -0.887000
     17 O7         -74.1410    62.8640   -21.3770 os         1 6G0      -0.747800
     18 P3         -73.1780    62.2170   -20.2230 p5         1 6G0       1.537800
     19 O8         -74.0440    62.0100   -19.0200 o          1 6G0      -0.884000
     20 O9         -72.3530    61.1000   -20.7730 o          1 6G0      -0.884000
     21 O10        -72.1260    63.4630   -19.9540 os         1 6G0      -0.709800
     22 P4         -72.2500    64.8600   -19.1130 p5         1 6G0       1.504800
     23 O11        -71.1320    65.7310   -19.6010 o          1 6G0      -0.891000
     24 O12        -72.4530    64.5980   -17.6560 o          1 6G0      -0.891000
     25 C6         -74.9090    65.3240   -19.2790 c3         1 6G0       0.232600
     26 C7         -75.8370    66.3410   -19.8960 c5         1 6G0       0.109300
     27 O14        -75.5500    67.6410   -19.3640 os         1 6G0      -0.468000
     28 C8         -75.7400    66.5010   -21.4210 c5         1 6G0       0.222300
     29 O15        -76.4800    65.5650   -22.1170 oh         1 6G0      -0.794000
     30 C9         -76.2170    67.9450   -21.6040 c5         1 6G0       0.090300
     31 O16        -77.6150    67.9630   -21.5530 oh         1 6G0      -0.672000
     32 C10        -75.6410    68.6120   -20.3450 c5         1 6G0       0.276300
     33 N4         -74.2980    69.1800   -20.5650 na         1 6G0      -0.039700
     34 N5         -72.1430    69.4490   -20.5060 na         1 6G0       0.085000
     35 C11        -70.7340    69.1710   -20.2800 c3         1 6G0       0.042900
     36 O17        -70.9510    72.1920   -21.3960 o          1 6G0      -0.595000
     37 H1         -72.9940    67.6080   -19.8770 h5         1 6G0       0.300000
     38 H2         -72.8160    73.6560   -22.0810 hn         1 6G0       0.290500
     39 H3         -76.2820    73.2740   -22.1980 hn         1 6G0       0.485500
     40 H4         -74.9680    74.3580   -22.4620 hn         1 6G0       0.485500
     41 H10        -75.2720    64.3300   -19.5470 h1         1 6G0       0.064200
     42 H11        -74.9520    65.4000   -18.1880 h1         1 6G0       0.064200
     43 H12        -76.8620    66.0630   -19.6240 h1         1 6G0       0.049700
     44 H13        -74.6810    66.4750   -21.7120 h1         1 6G0       0.087700
     45 H14        -75.8510    64.9550   -22.6060 ho         1 6G0       0.644000
     46 H15        -75.8320    68.4080   -22.5200 h1         1 6G0       0.053700
     47 H16        -77.9200    68.8580   -21.7350 ho         1 6G0       0.451000
     48 H17        -76.2560    69.4540   -20.0130 h2         1 6G0       0.052700
     49 H18        -70.6390    68.1420   -19.9470 h1         1 6G0       0.085033
     50 H19        -70.1810    69.3080   -21.2050 h1         1 6G0       0.085033
     51 H20        -70.3460    69.8430   -19.5190 h1         1 6G0       0.085033
     52 O13        -73.6010    65.5430   -19.7570 os         1 6G0      -0.645400
@<TRIPOS>BOND
     1     1     3 1   
     2     1     4 1   
     3     1     5 2   
     4     2    33 2   
     5     2    34 1   
     6     2    37 1   
     7     3     8 1   
     8     3    38 1   
     9     4    39 1   
    10     4    40 1   
    11     5     6 1   
    12     6     7 2   
    13     6    33 1   
    14     7     8 1   
    15     7    34 1   
    16     8    36 2   
    17     9    10 1   
    18    10    11 1   
    19    10    12 1   
    20    10    13 1   
    21    13    14 1   
    22    14    15 1   
    23    14    16 1   
    24    14    17 1   
    25    17    18 1   
    26    18    19 1   
    27    18    20 1   
    28    18    21 1   
    29    21    22 1   
    30    22    23 1   
    31    22    24 1   
    32    22    52 1   
    33    25    26 1   
    34    25    41 1   
    35    25    42 1   
    36    25    52 1   
    37    26    27 1   
    38    26    28 1   
    39    26    43 1   
    40    27    32 1   
    41    28    29 1   
    42    28    30 1   
    43    28    44 1   
    44    29    45 1   
    45    30    31 1   
    46    30    32 1   
    47    30    46 1   
    48    31    47 1   
    49    32    33 1   
    50    32    48 1   
    51    34    35 1   
    52    35    49 1   
    53    35    50 1   
    54    35    51 1   
@<TRIPOS>SUBSTRUCTURE
     1 6G0         1 TEMP              0 ****  ****    0 ROOT
