@<TRIPOS>MOLECULE
6KP
   34    38     1     0     0
SMALL
abcg2


@<TRIPOS>ATOM
      1 N3          14.0550   -32.2010   -17.8240 nb         1 6KP      -0.670000
      2 C4          13.3060   -32.7740   -16.8940 ca         1 6KP       0.348500
      3 C7          11.6800   -33.7710   -15.7940 cc         1 6KP       0.429700
      4 C10         14.9060   -32.5600   -15.1330 ca         1 6KP      -0.006000
      5 N12         16.9910   -31.4790   -15.7220 na         1 6KP      -0.010400
      6 C13         17.3830   -30.1560   -15.5960 cc         1 6KP      -0.101200
      7 C20         20.4410   -32.0260   -14.7480 ca         1 6KP      -0.077000
      8 C21         20.5080   -33.4030   -14.7560 ca         1 6KP       0.120000
      9 C24         18.2100   -33.6540   -15.4180 ca         1 6KP      -0.124000
     10 C2          15.2670   -31.7950   -17.4270 ca         1 6KP       0.382300
     11 N5          12.0350   -33.2820   -17.0200 na         1 6KP      -0.427300
     12 N8          12.6130   -33.6240   -14.8830 nd         1 6KP      -0.559100
     13 C9          13.6560   -32.9970   -15.5460 ca         1 6KP       0.025400
     14 C11         15.7060   -31.9530   -16.0910 ca         1 6KP      -0.064200
     15 C14         16.9530   -28.8520   -15.6970 cd         1 6KP      -0.190000
     16 N15         18.0530   -28.1100   -15.3690 na         1 6KP      -0.005200
     17 N16         19.1530   -28.8280   -15.0640 nd         1 6KP      -0.472800
     18 C18         18.7400   -30.0920   -15.2050 cc         1 6KP       0.266500
     19 C19         19.2210   -31.4440   -15.0850 ca         1 6KP      -0.146500
     20 F22         21.6930   -33.9960   -14.4290 f          1 6KP      -0.188000
     21 C23         19.4340   -34.2230   -15.0810 ca         1 6KP      -0.110000
     22 C25         18.1050   -32.2690   -15.4150 ca         1 6KP       0.013800
     23 H1          10.7160   -34.2250   -15.6310 h5         1 6KP       0.069800
     24 H2          15.2550   -32.6750   -14.1160 ha         1 6KP       0.149000
     25 H3          21.3070   -31.4320   -14.4920 ha         1 6KP       0.143000
     26 H4          17.3680   -34.2790   -15.6740 ha         1 6KP       0.128000
     27 H5          15.7690   -31.3620   -19.4500 hc         1 6KP       0.060033
     28 H6          16.1920   -30.0740   -18.3170 hc         1 6KP       0.060033
     29 H7          17.1750   -31.5250   -18.3760 hc         1 6KP       0.060033
     30 H8          11.4710   -33.2970   -17.8540 hn         1 6KP       0.371000
     31 H10         16.0190   -28.3940   -15.9620 h4         1 6KP       0.165000
     32 H11         18.0980   -27.1050   -15.3380 hn         1 6KP       0.375000
     33 H12         19.5600   -35.2960   -15.0700 ha         1 6KP       0.132000
     34 C1          16.1530   -31.1560   -18.4550 c3         1 6KP      -0.145400
@<TRIPOS>BOND
     1     1     2 ar  
     2     1    10 ar  
     3     2    11 1   
     4     2    13 ar  
     5     3    11 1   
     6     3    12 2   
     7     3    23 1   
     8     4    13 ar  
     9     4    14 ar  
    10     4    24 1   
    11     5     6 1   
    12     5    14 1   
    13     5    22 1   
    14     6    15 2   
    15     6    18 1   
    16     7     8 ar  
    17     7    19 ar  
    18     7    25 1   
    19     8    20 1   
    20     8    21 ar  
    21     9    21 ar  
    22     9    22 ar  
    23     9    26 1   
    24    10    14 ar  
    25    10    34 1   
    26    11    30 1   
    27    12    13 1   
    28    15    16 1   
    29    15    31 1   
    30    16    17 1   
    31    16    32 1   
    32    17    18 2   
    33    18    19 1   
    34    19    22 ar  
    35    21    33 1   
    36    27    34 1   
    37    28    34 1   
    38    29    34 1   
@<TRIPOS>SUBSTRUCTURE
     1 6KP         1 TEMP              0 ****  ****    0 ROOT
