@<TRIPOS>MOLECULE
6MI
   40    42     1     0     0
SMALL
abcg2


@<TRIPOS>ATOM
      1 P           -0.3550    -6.5570    -1.7040 p5         1 6MI       1.268900
      2 O1P         -1.2320    -6.8860    -2.9040 o          1 6MI      -0.920833
      3 O2P         -0.8920    -7.0210    -0.3530 o          1 6MI      -0.920833
      4 O3P          1.1370    -6.8030    -1.9010 o          1 6MI      -0.920833
      5 O5          -0.4980    -4.8380    -1.6640 os         1 6MI      -0.564400
      6 N1M          0.3450     0.2270    -2.3920 n          1 6MI      -0.307000
      7 C2M         -1.0440     0.3110    -2.5040 c          1 6MI       0.443700
      8 O2M         -1.7840    -0.3490    -1.8010 o          1 6MI      -0.487000
      9 C3M         -1.5440     1.2370    -3.5270 cc         1 6MI       0.325300
     10 N4M         -0.7650     1.9820    -4.2240 nd         1 6MI      -0.464300
     11 C4A          0.5760     1.9420    -4.0210 cd         1 6MI      -0.154600
     12 C8A          1.1340     1.0810    -3.1090 cc         1 6MI       0.310600
     13 N8M          2.4840     1.1050    -2.9290 na         1 6MI      -0.801200
     14 C7M          3.2610     1.9640    -3.6630 cc         1 6MI       0.907100
     15 N7M          4.5690     1.9350    -3.4090 nv         1 6MI      -1.074200
     16 N6M          2.7860     2.7790    -4.5570 nd         1 6MI      -0.798100
     17 C5M          1.4420     2.8410    -4.7940 c          1 6MI       0.761700
     18 O5M          0.9840     3.6140    -5.6220 o          1 6MI      -0.551100
     19 C3I         -3.0220     1.2920    -3.7220 c3         1 6MI      -0.109400
     20 C2           0.6950    -0.5500    -0.0180 c5         1 6MI      -0.167400
     21 C5           0.2010    -4.1790    -0.6600 c3         1 6MI       0.255600
     22 C4          -0.1280    -2.7040    -0.6390 c5         1 6MI       0.118300
     23 O4           0.3740    -2.0630    -1.8120 os         1 6MI      -0.389000
     24 C1           0.9090    -0.8140    -1.5020 c5         1 6MI       0.326700
     25 C3           0.5400    -1.9680     0.5280 c5         1 6MI       0.133300
     26 O3          -0.1370    -2.0750     1.7470 oh         1 6MI      -0.700000
     27 H8M          2.9250     0.5710    -2.1960 hn         1 6MI       0.510000
     28 H7M1         4.9970     1.2960    -2.7610 hn         1 6MI       0.506500
     29 H7M2         5.1710     2.5470    -3.9330 hn         1 6MI       0.506500
     30 H3I1        -3.5300     1.6090    -2.8090 hc         1 6MI       0.053033
     31 H3I2        -3.4270     0.3140    -3.9860 hc         1 6MI       0.053033
     32 H3I3        -3.2640     1.9960    -4.5140 hc         1 6MI       0.053033
     33 H2'1        -0.2110     0.0280     0.1660 hc         1 6MI       0.049200
     34 H2'2         1.5350    -0.0090     0.4140 hc         1 6MI       0.049200
     35 H5'1        -0.0480    -4.5680     0.3400 h1         1 6MI       0.008200
     36 H5'2         1.2920    -4.2880    -0.7680 h1         1 6MI       0.008200
     37 H4          -1.2160    -2.5690    -0.5840 h1         1 6MI       0.071700
     38 H1           1.9760    -0.8610    -1.7210 h2         1 6MI       0.029700
     39 H3           1.5310    -2.4020     0.7010 h1         1 6MI       0.082700
     40 H3T         -1.0190    -1.7010     1.6440 ho         1 6MI       0.498000
@<TRIPOS>BOND
     1     1     2 1   
     2     1     3 1   
     3     1     4 1   
     4     1     5 1   
     5     5    21 1   
     6     6     7 1   
     7     6    12 1   
     8     6    24 1   
     9     7     8 2   
    10     7     9 1   
    11     9    10 2   
    12     9    19 1   
    13    10    11 1   
    14    11    12 2   
    15    11    17 1   
    16    12    13 1   
    17    13    14 1   
    18    13    27 1   
    19    14    15 1   
    20    14    16 2   
    21    15    28 1   
    22    15    29 1   
    23    16    17 1   
    24    17    18 2   
    25    19    30 1   
    26    19    31 1   
    27    19    32 1   
    28    20    24 1   
    29    20    25 1   
    30    20    33 1   
    31    20    34 1   
    32    21    22 1   
    33    21    35 1   
    34    21    36 1   
    35    22    23 1   
    36    22    25 1   
    37    22    37 1   
    38    23    24 1   
    39    24    38 1   
    40    25    26 1   
    41    25    39 1   
    42    26    40 1   
@<TRIPOS>SUBSTRUCTURE
     1 6MI         1 TEMP              0 ****  ****    0 ROOT
