@<TRIPOS>MOLECULE
6UR
   57    61     1     0     0
SMALL
abcg2


@<TRIPOS>ATOM
      1 C1         -31.4300     6.3320   -22.6540 c3         1 6UR       0.246800
      2 C2         -28.7330     6.9850   -32.3720 ca         1 6UR       0.170900
      3 C3         -31.2650     7.3120   -23.8220 c3         1 6UR      -0.041200
      4 C4         -29.6420     6.1180   -30.5710 ca         1 6UR       0.136500
      5 C5         -30.9100     6.1310   -31.1330 ca         1 6UR      -0.099600
      6 C6         -31.0080     6.6440   -32.4400 ca         1 6UR       0.444900
      7 C7         -32.5350     7.5370   -24.5730 cc         1 6UR      -0.117400
      8 N1         -29.8850     7.0640   -33.0330 nb         1 6UR      -0.313000
      9 N3         -28.5170     6.5350   -31.1480 nb         1 6UR      -0.199000
     10 C8         -31.1460     5.3160   -29.2000 cc         1 6UR       0.419700
     11 C11        -28.7840     5.4260   -28.3230 c5         1 6UR       0.314300
     12 C17        -28.8340     6.4710   -27.2110 c5         1 6UR       0.128300
     13 C18        -28.1230     5.7250   -26.0840 c5         1 6UR       0.112300
     14 C19        -28.6710     4.3080   -26.2860 c5         1 6UR       0.122300
     15 C20        -29.9340     4.0000   -25.4920 c3         1 6UR       0.212600
     16 O3P        -31.5500     2.4690   -23.4290 o          1 6UR      -0.814000
     17 P          -30.7640     3.6690   -22.9870 p5         1 6UR       1.368700
     18 N1P        -31.8030     4.9950   -23.0500 n7         1 6UR      -0.992500
     19 O2P        -29.9980     3.7030   -21.6990 o          1 6UR      -0.814000
     20 O5         -29.5850     3.9680   -24.1340 os         1 6UR      -0.597400
     21 O3         -26.7420     5.8040   -26.3230 oh         1 6UR      -0.713000
     22 O2         -28.2560     7.6580   -27.6520 oh         1 6UR      -0.684000
     23 O4         -28.9490     4.1930   -27.6870 os         1 6UR      -0.463000
     24 N9         -29.8110     5.5900   -29.3230 na         1 6UR      -0.277300
     25 N7         -31.8350     5.6210   -30.2590 nd         1 6UR      -0.576100
     26 C9         -33.6440     8.3400   -24.1420 ca         1 6UR      -0.092800
     27 C10        -34.6460     8.2390   -25.1330 ca         1 6UR      -0.046200
     28 N11        -34.1690     7.4150   -26.1090 na         1 6UR      -0.226700
     29 C12        -32.9100     6.9970   -25.7720 cd         1 6UR      -0.167100
     30 C13        -33.8770     9.1400   -23.0180 ca         1 6UR      -0.049000
     31 C14        -35.0800     9.8090   -22.9100 ca         1 6UR      -0.155000
     32 C15        -36.0650     9.6920   -23.9060 ca         1 6UR      -0.099000
     33 C16        -35.8630     8.9110   -25.0280 ca         1 6UR      -0.135000
     34 H1         -30.4950     6.2820   -22.0960 h1         1 6UR       0.036200
     35 H2         -32.1740     6.7440   -21.9620 h1         1 6UR       0.036200
     36 H4         -30.4900     6.9420   -24.4960 hc         1 6UR       0.033200
     37 H5         -30.9010     8.2640   -23.4220 hc         1 6UR       0.033200
     38 H6         -31.5540     4.8720   -28.3040 h5         1 6UR       0.075800
     39 H7         -27.8280     5.4890   -28.8570 h2         1 6UR       0.116700
     40 H8         -29.8820     6.6190   -26.9160 h1         1 6UR       0.046700
     41 H9         -28.3830     6.1190   -25.0940 h1         1 6UR       0.081700
     42 H10        -27.9100     3.5640   -26.0240 h1         1 6UR       0.087700
     43 H11        -30.7040     4.7590   -25.6930 h1         1 6UR       0.019700
     44 H12        -30.3390     3.0400   -25.8310 h1         1 6UR       0.019700
     45 H13        -32.5710     4.9480   -23.7040 hn         1 6UR       0.443000
     46 H15        -26.2870     5.2870   -25.6500 ho         1 6UR       0.512000
     47 H16        -28.4610     8.3570   -27.0240 ho         1 6UR       0.509000
     48 H17        -32.1860     7.0730   -34.0430 hn         1 6UR       0.501500
     49 H18        -33.0200     6.3940   -32.6920 hn         1 6UR       0.501500
     50 H19        -34.6540     7.1630   -26.9540 hn         1 6UR       0.347000
     51 H20        -32.3600     6.3410   -26.4270 h4         1 6UR       0.208000
     52 H21        -33.1250     9.2360   -22.2430 ha         1 6UR       0.116000
     53 H22        -35.2740    10.4330   -22.0470 ha         1 6UR       0.102000
     54 H23        -36.9990    10.2270   -23.7940 ha         1 6UR       0.099000
     55 H24        -36.6210     8.8240   -25.7960 ha         1 6UR       0.105000
     56 N6         -32.1660     6.7340   -33.0960 nv         1 6UR      -1.073900
     57 H3         -27.8610     7.3390   -32.9110 h5         1 6UR       0.040100
@<TRIPOS>BOND
     1     1     3 1   
     2     1    18 1   
     3     1    34 1   
     4     1    35 1   
     5     2     8 ar  
     6     2     9 ar  
     7     2    57 1   
     8     3     7 1   
     9     3    36 1   
    10     3    37 1   
    11     4     5 ar  
    12     4     9 ar  
    13     4    24 1   
    14     5     6 ar  
    15     5    25 1   
    16     6     8 ar  
    17     6    56 1   
    18     7    26 1   
    19     7    29 2   
    20    10    24 1   
    21    10    25 2   
    22    10    38 1   
    23    11    12 1   
    24    11    23 1   
    25    11    24 1   
    26    11    39 1   
    27    12    13 1   
    28    12    22 1   
    29    12    40 1   
    30    13    14 1   
    31    13    21 1   
    32    13    41 1   
    33    14    15 1   
    34    14    23 1   
    35    14    42 1   
    36    15    20 1   
    37    15    43 1   
    38    15    44 1   
    39    16    17 1   
    40    17    18 1   
    41    17    19 1   
    42    17    20 1   
    43    18    45 1   
    44    21    46 1   
    45    22    47 1   
    46    26    27 ar  
    47    26    30 ar  
    48    27    28 1   
    49    27    33 ar  
    50    28    29 1   
    51    28    50 1   
    52    29    51 1   
    53    30    31 ar  
    54    30    52 1   
    55    31    32 ar  
    56    31    53 1   
    57    32    33 ar  
    58    32    54 1   
    59    33    55 1   
    60    48    56 1   
    61    49    56 1   
@<TRIPOS>SUBSTRUCTURE
     1 6UR         1 TEMP              0 ****  ****    0 ROOT
