@<TRIPOS>MOLECULE
6VQ
   89    94     1     0     0
SMALL
abcg2


@<TRIPOS>ATOM
      1 P10         -3.0870    -9.9860   -42.3610 p5         1 6VQ       1.200200
      2 P14         -4.5460   -10.1490   -39.8150 p5         1 6VQ       1.536300
      3 P18         -6.6710   -12.2870   -39.9870 p5         1 6VQ       1.536300
      4 P22         -8.6810   -11.1780   -38.0870 p5         1 6VQ       1.200200
      5 N02         -2.1670   -10.0140   -47.4570 na         1 6VQ       0.080800
      6 C03         -1.9270   -10.7740   -46.4140 cc         1 6VQ      -0.038300
      7 N04         -1.4730   -11.9710   -46.8170 na         1 6VQ       0.007000
      8 C05         -1.1130   -13.0940   -45.9310 c5         1 6VQ       0.287800
      9 O06         -1.8630   -12.9780   -44.7710 os         1 6VQ      -0.441000
     10 C07         -1.0070   -12.9690   -43.6280 c5         1 6VQ       0.115800
     11 C08         -1.6700   -12.2350   -42.4930 c3         1 6VQ       0.220600
     12 O09         -1.8200   -10.8530   -42.8120 os         1 6VQ      -0.629900
     13 O11         -2.8890    -8.5690   -42.7120 o          1 6VQ      -0.514000
     14 S12         -4.7690   -10.8840   -43.2180 sh         1 6VQ      -0.472200
     15 O13         -3.2200   -10.3690   -40.8200 os         1 6VQ      -0.660300
     16 O15         -5.3690    -9.0590   -40.4360 o          1 6VQ      -0.831250
     17 O16         -4.0250   -10.0520   -38.4330 o          1 6VQ      -0.831250
     18 O17         -5.1810   -11.6220   -40.0890 os         1 6VQ      -0.721800
     19 O19         -7.4840   -11.9570   -41.1870 o          1 6VQ      -0.831250
     20 O20         -6.5170   -13.6700   -39.4700 o          1 6VQ      -0.831250
     21 O21         -7.2260   -11.3300   -38.7060 os         1 6VQ      -0.660300
     22 O23         -8.6490   -10.5320   -36.7600 o          1 6VQ      -0.514000
     23 S24         -9.4090   -13.1330   -38.1310 sh         1 6VQ      -0.472200
     24 O25         -9.5410   -10.3030   -39.1080 os         1 6VQ      -0.629900
     25 C26        -10.4180   -10.7010   -40.1610 c3         1 6VQ       0.220600
     26 C27        -10.4780    -9.6110   -41.2290 c5         1 6VQ       0.115800
     27 O28        -10.5110    -8.3040   -40.6450 os         1 6VQ      -0.441000
     28 C29         -9.2340    -7.7530   -40.6440 c5         1 6VQ       0.287800
     29 N30         -8.8310    -7.5490   -39.2380 na         1 6VQ      -0.043700
     30 C31         -7.6110    -7.7590   -38.7190 cc         1 6VQ      -0.038300
     31 N32         -7.6350    -7.5330   -37.4250 na         1 6VQ       0.131500
     32 C33         -6.5050    -7.7210   -36.5310 c3         1 6VQ       0.040900
     33 C34         -8.9110    -7.1630   -37.0680 cc         1 6VQ      -0.302600
     34 C35         -9.5160    -6.8030   -35.8000 c          1 6VQ       0.783100
     35 O36         -8.9000    -6.7740   -34.7450 o          1 6VQ      -0.517100
     36 N37        -10.8420    -6.4890   -35.8880 nc         1 6VQ      -0.777100
     37 C38        -11.5140    -6.5280   -37.0110 cd         1 6VQ       0.810700
     38 N39        -12.8120    -6.2350   -37.0140 nv         1 6VQ      -1.048200
     39 N40        -10.9620    -6.8690   -38.2190 na         1 6VQ      -0.376100
     40 C41         -9.6460    -7.1830   -38.2120 cd         1 6VQ      -0.000200
     41 C42         -8.3030    -8.7380   -41.3830 c5         1 6VQ       0.156300
     42 O43         -7.2880    -8.1130   -42.0910 oh         1 6VQ      -0.715500
     43 C44         -9.3080    -9.5290   -42.2090 c5         1 6VQ       0.121300
     44 O45         -9.6440    -8.7680   -43.3390 oh         1 6VQ      -0.706000
     45 C46          0.3130   -12.4080   -44.1630 c5         1 6VQ       0.121300
     46 O47          1.4300   -12.7530   -43.4040 oh         1 6VQ      -0.706000
     47 C48          0.3720   -13.0720   -45.5410 c5         1 6VQ       0.156300
     48 O49          0.7810   -14.4070   -45.4640 oh         1 6VQ      -0.715500
     49 C50         -1.4280   -11.9450   -48.1790 cc         1 6VQ       0.265000
     50 N51         -1.0430   -12.9000   -49.0540 na         1 6VQ      -0.914700
     51 C52         -1.1250   -12.5750   -50.3880 cc         1 6VQ       0.924100
     52 N53         -0.7490   -13.5140   -51.2500 nv         1 6VQ      -1.048200
     53 N54         -1.5390   -11.4150   -50.8300 nd         1 6VQ      -0.777100
     54 C55         -1.9340   -10.4000   -50.0090 c          1 6VQ       0.783100
     55 O56         -2.3150    -9.3180   -50.4250 o          1 6VQ      -0.517100
     56 C57         -1.8610   -10.7250   -48.5950 cd         1 6VQ      -0.302600
     57 H1          -2.8470    -8.3960   -46.3570 h1         1 6VQ       0.099200
     58 H2          -1.9740    -7.9710   -47.8440 h1         1 6VQ       0.099200
     59 H3          -3.6300    -8.6070   -47.9350 h1         1 6VQ       0.099200
     60 H5          -1.3660   -14.0060   -46.4800 h2         1 6VQ       0.111700
     61 H6          -0.8430   -13.9960   -43.2760 h1         1 6VQ       0.087200
     62 H7          -2.6330   -12.7040   -42.2730 h1         1 6VQ       0.079200
     63 H8          -1.0450   -12.3330   -41.6020 h1         1 6VQ       0.079200
     64 H9          -4.5200   -10.3950   -44.4420 hs         1 6VQ       0.256800
     65 H12        -10.5870   -12.8100   -37.5740 hs         1 6VQ       0.256800
     66 H13        -11.4110   -10.8430   -39.7320 h1         1 6VQ       0.079200
     67 H14        -10.1060   -11.6430   -40.6150 h1         1 6VQ       0.079200
     68 H15        -11.4180    -9.7590   -41.7690 h1         1 6VQ       0.087200
     69 H16         -9.2490    -6.7690   -41.1190 h2         1 6VQ       0.111700
     70 H17         -6.7340    -8.0770   -39.2740 h5         1 6VQ       0.264000
     71 H18         -6.2280    -6.7740   -36.0780 h1         1 6VQ       0.099200
     72 H19         -6.7740    -8.4350   -35.7600 h1         1 6VQ       0.099200
     73 H20         -5.6720    -8.1110   -37.1080 h1         1 6VQ       0.099200
     74 H21        -13.2430    -5.9490   -36.1520 hn         1 6VQ       0.521750
     75 H22        -13.3580    -6.1730   -37.8570 hn         1 6VQ       0.521750
     76 H23        -11.5270    -6.9830   -39.0500 hn         1 6VQ       0.372500
     77 H24         -7.8880    -9.4470   -40.6660 h1         1 6VQ       0.075700
     78 H25         -6.4520    -8.4210   -41.6940 ho         1 6VQ       0.572000
     79 H26         -8.9200   -10.5170   -42.4680 h1         1 6VQ       0.102700
     80 H27        -10.2380    -9.2860   -43.8930 ho         1 6VQ       0.520500
     81 H28          0.2330   -11.3230   -44.2990 h1         1 6VQ       0.102700
     82 H29          1.5470   -12.1110   -42.6970 ho         1 6VQ       0.520500
     83 H30          0.9730   -12.4980   -46.2570 h1         1 6VQ       0.075700
     84 H31          1.6260   -14.4440   -45.0010 ho         1 6VQ       0.572000
     85 H32         -0.6950   -13.8030   -48.7590 hn         1 6VQ       0.532500
     86 H33         -0.8070   -13.3160   -52.2340 hn         1 6VQ       0.521750
     87 H34         -0.4470   -14.4320   -50.9690 hn         1 6VQ       0.521750
     88 C01         -2.6880    -8.6560   -47.3980 c3         1 6VQ       0.040900
     89 H4          -2.0680   -10.4740   -45.3900 h5         1 6VQ       0.264000
@<TRIPOS>BOND
     1     1    12 1   
     2     1    13 2   
     3     1    14 1   
     4     1    15 1   
     5     2    15 1   
     6     2    16 1   
     7     2    17 1   
     8     2    18 1   
     9     3    18 1   
    10     3    19 1   
    11     3    20 1   
    12     3    21 1   
    13     4    21 1   
    14     4    22 2   
    15     4    23 1   
    16     4    24 1   
    17     5     6 2   
    18     5    56 1   
    19     5    88 1   
    20     6     7 1   
    21     6    89 1   
    22     7     8 1   
    23     7    49 1   
    24     8     9 1   
    25     8    47 1   
    26     8    60 1   
    27     9    10 1   
    28    10    11 1   
    29    10    45 1   
    30    10    61 1   
    31    11    12 1   
    32    11    62 1   
    33    11    63 1   
    34    14    64 1   
    35    23    65 1   
    36    24    25 1   
    37    25    26 1   
    38    25    66 1   
    39    25    67 1   
    40    26    27 1   
    41    26    43 1   
    42    26    68 1   
    43    27    28 1   
    44    28    29 1   
    45    28    41 1   
    46    28    69 1   
    47    29    30 2   
    48    29    40 1   
    49    30    31 1   
    50    30    70 1   
    51    31    32 1   
    52    31    33 1   
    53    32    71 1   
    54    32    72 1   
    55    32    73 1   
    56    33    34 1   
    57    33    40 2   
    58    34    35 2   
    59    34    36 1   
    60    36    37 2   
    61    37    38 1   
    62    37    39 1   
    63    38    74 1   
    64    38    75 1   
    65    39    40 1   
    66    39    76 1   
    67    41    42 1   
    68    41    43 1   
    69    41    77 1   
    70    42    78 1   
    71    43    44 1   
    72    43    79 1   
    73    44    80 1   
    74    45    46 1   
    75    45    47 1   
    76    45    81 1   
    77    46    82 1   
    78    47    48 1   
    79    47    83 1   
    80    48    84 1   
    81    49    50 1   
    82    49    56 2   
    83    50    51 1   
    84    50    85 1   
    85    51    52 1   
    86    51    53 2   
    87    52    86 1   
    88    52    87 1   
    89    53    54 1   
    90    54    55 2   
    91    54    56 1   
    92    57    88 1   
    93    58    88 1   
    94    59    88 1   
@<TRIPOS>SUBSTRUCTURE
     1 6VQ         1 TEMP              0 ****  ****    0 ROOT
