@<TRIPOS>MOLECULE
6WB
   42    43     1     0     0
SMALL
abcg2


@<TRIPOS>ATOM
      1 C4          27.0910    -9.7050   -12.5540 cc         1 6WB       0.064400
      2 C5          26.4790   -10.0610   -11.3560 cd         1 6WB       0.125500
      3 C6          26.1380    -9.0380   -10.4160 c          1 6WB       0.504500
      4 C8          26.7900   -11.8710   -12.4340 cc         1 6WB       0.434400
      5 N1          26.5150    -7.7760   -10.9150 ns         1 6WB      -0.439400
      6 N3          27.4270    -8.4610   -12.9710 nc         1 6WB      -0.577100
      7 O6          25.5990    -9.1440    -9.3190 o          1 6WB      -0.552000
      8 C2          27.1140    -7.5380   -12.1100 cd         1 6WB       0.469800
      9 N7          26.2990   -11.4250   -11.3000 nd         1 6WB      -0.639000
     10 N9          27.2800   -10.8740   -13.2370 na         1 6WB      -0.134500
     11 CAL         27.9390   -11.0200   -14.5290 c3         1 6WB       0.061600
     12 CAJ         29.4560   -11.0630   -14.3580 c3         1 6WB       0.184800
     13 NAV         30.1490   -10.9450   -15.6290 n3         1 6WB      -0.781600
     14 CAK         29.8110   -11.9740   -16.6240 c3         1 6WB       0.203800
     15 CAM         30.0500   -13.4270   -16.2170 c3         1 6WB      -0.420400
     16 PAX         29.5670   -14.6680   -17.5060 p5         1 6WB       1.295500
     17 OAE         30.4960   -14.4380   -18.7090 o          1 6WB      -0.934167
     18 OAF         29.7800   -16.0310   -16.8370 o          1 6WB      -0.934167
     19 OAB         28.0930   -14.3850   -17.8300 o          1 6WB      -0.934167
     20 CAN         31.5820   -10.7110   -15.4700 c3         1 6WB       0.163800
     21 CAU         31.9690    -9.2880   -15.8870 c3         1 6WB       0.163300
     22 OAD         33.3900    -9.1100   -15.8290 oh         1 6WB      -0.684000
     23 CAI         31.3240    -8.2050   -15.0490 c3         1 6WB       0.168600
     24 OAC         31.6750    -8.3620   -13.6700 oh         1 6WB      -0.658000
     25 H1          26.8220   -12.9020   -12.7450 h5         1 6WB       0.085100
     26 H2          26.3140    -6.9840   -10.3180 hn         1 6WB       0.311500
     27 H3          27.3300    -6.5010   -12.3250 h5         1 6WB       0.036800
     28 H4          27.6540   -10.1740   -15.1510 h1         1 6WB       0.094700
     29 H5          27.5560   -11.9270   -14.9880 h1         1 6WB       0.094700
     30 H6          29.7200   -11.9770   -13.8070 h1         1 6WB       0.027700
     31 H7          29.7510   -10.2210   -13.7340 h1         1 6WB       0.027700
     32 H9          30.3870   -11.7440   -17.5210 h1         1 6WB       0.051700
     33 H10         28.7640   -11.8490   -16.8990 h1         1 6WB       0.051700
     34 H11         29.4760   -13.6630   -15.3180 hc         1 6WB       0.010700
     35 H12         31.1030   -13.5820   -15.9690 hc         1 6WB       0.010700
     36 H15         32.1470   -11.4060   -16.0940 h1         1 6WB       0.048200
     37 H16         31.9040   -10.8830   -14.4420 h1         1 6WB       0.048200
     38 H17         31.6180    -9.1320   -16.9130 h1         1 6WB       0.041700
     39 H18         33.8010    -9.7800   -16.3850 ho         1 6WB       0.440000
     40 H19         31.6540    -7.2290   -15.4150 h1         1 6WB       0.025700
     41 H20         30.2420    -8.2740   -15.1790 h1         1 6WB       0.025700
     42 H21         31.1450    -7.7470   -13.1550 ho         1 6WB       0.419000
@<TRIPOS>BOND
     1     1     2 2   
     2     1     6 1   
     3     1    10 1   
     4     2     3 1   
     5     2     9 1   
     6     3     5 1   
     7     3     7 2   
     8     4     9 2   
     9     4    10 1   
    10     4    25 1   
    11     5     8 1   
    12     5    26 1   
    13     6     8 2   
    14     8    27 1   
    15    10    11 1   
    16    11    12 1   
    17    11    28 1   
    18    11    29 1   
    19    12    13 1   
    20    12    30 1   
    21    12    31 1   
    22    13    14 1   
    23    13    20 1   
    24    14    15 1   
    25    14    32 1   
    26    14    33 1   
    27    15    16 1   
    28    15    34 1   
    29    15    35 1   
    30    16    17 1   
    31    16    18 1   
    32    16    19 1   
    33    20    21 1   
    34    20    36 1   
    35    20    37 1   
    36    21    22 1   
    37    21    23 1   
    38    21    38 1   
    39    22    39 1   
    40    23    24 1   
    41    23    40 1   
    42    23    41 1   
    43    24    42 1   
@<TRIPOS>SUBSTRUCTURE
     1 6WB         1 TEMP              0 ****  ****    0 ROOT
