@<TRIPOS>MOLECULE
6YW
   25    24     1     0     0
SMALL
abcg2


@<TRIPOS>ATOM
      1 O01        -11.8030    52.2680   -34.8200 o          1 6YW      -0.999333
      2 P02        -12.2370    52.9940   -33.5570 p5         1 6YW       1.417400
      3 O03        -11.4610    52.6130   -32.3070 o          1 6YW      -0.999333
      4 O04        -11.7580    54.6100   -33.7780 os         1 6YW      -0.759300
      5 P05        -11.7410    55.5220   -35.0870 p5         1 6YW       1.597300
      6 O06        -10.4500    55.3570   -35.8280 o          1 6YW      -0.934000
      7 O07        -11.6240    56.9940   -34.3730 os         1 6YW      -0.739300
      8 P08        -12.7040    57.9860   -33.6970 p5         1 6YW       1.612800
      9 O09        -13.7530    57.2210   -32.9620 o          1 6YW      -0.948750
     10 O10        -13.3520    58.5990   -35.0570 os         1 6YW      -0.730800
     11 P11        -14.2290    59.9380   -35.3320 p5         1 6YW       1.612800
     12 O12        -15.0500    59.6650   -36.5480 o          1 6YW      -0.948750
     13 O13        -13.1000    61.0450   -35.6500 os         1 6YW      -0.739300
     14 P14        -11.7950    61.0840   -36.6490 p5         1 6YW       1.597300
     15 O15        -10.5840    61.1090   -35.7710 o          1 6YW      -0.934000
     16 O16        -12.0350    62.4730   -37.3840 os         1 6YW      -0.759300
     17 P17        -11.6840    64.0970   -37.0140 p5         1 6YW       1.417400
     18 O18        -10.2000    64.2460   -37.3090 o          1 6YW      -0.999333
     19 O19        -12.0550    64.2870   -35.5530 o          1 6YW      -0.999333
     20 O20        -12.5940    64.8260   -37.9900 o          1 6YW      -0.999333
     21 O21        -11.9130    60.0040   -37.6780 o          1 6YW      -0.934000
     22 O22        -14.9060    60.3740   -34.0730 o          1 6YW      -0.948750
     23 O23        -11.9200    59.0310   -32.9770 o          1 6YW      -0.948750
     24 O24        -13.0210    55.4280   -35.8550 o          1 6YW      -0.934000
     25 O25        -13.7430    53.0500   -33.3540 o          1 6YW      -0.999333
@<TRIPOS>BOND
     1     1     2 1   
     2     2     3 1   
     3     2     4 1   
     4     2    25 1   
     5     4     5 1   
     6     5     6 1   
     7     5     7 1   
     8     5    24 1   
     9     7     8 1   
    10     8     9 1   
    11     8    10 1   
    12     8    23 1   
    13    10    11 1   
    14    11    12 1   
    15    11    13 1   
    16    11    22 1   
    17    13    14 1   
    18    14    15 1   
    19    14    16 1   
    20    14    21 1   
    21    16    17 1   
    22    17    18 1   
    23    17    19 1   
    24    17    20 1   
@<TRIPOS>SUBSTRUCTURE
     1 6YW         1 TEMP              0 ****  ****    0 ROOT
