@<TRIPOS>MOLECULE
10C
   34    36     1     0     0
SMALL
abcg2


@<TRIPOS>ATOM
      1 O5          12.5970    -7.4810    -9.2760 os         1 10C      -0.558400
      2 C5          13.6050    -8.0850    -8.5420 c3         1 10C       0.289600
      3 C4          13.9320    -7.3890    -7.2240 c5         1 10C       0.081000
      4 O4          13.5370    -6.0130    -7.2450 os         1 10C      -0.396000
      5 C1          13.6080    -5.5400    -5.9230 c5         1 10C       0.284700
      6 N1          12.3160    -4.9960    -5.4980 n          1 10C      -0.318000
      7 C6          11.1460    -5.3930    -6.0530 cc         1 10C       0.064600
      8 C7           9.9750    -4.8500    -5.6520 cd         1 10C      -0.516600
      9 C8          10.0350    -3.8420    -4.6470 cd         1 10C       0.774500
     10 N4           8.9150    -3.2430    -4.2360 nv         1 10C      -1.060200
     11 N3          11.1750    -3.4760    -4.0910 nc         1 10C      -0.826100
     12 C2          12.3370    -4.0480    -4.4610 c          1 10C       0.706400
     13 O2          13.4090    -3.7760    -3.9320 o          1 10C      -0.615000
     14 C3          13.3330    -7.8670    -5.8870 c5         1 10C       0.104300
     15 C10         14.0760    -6.7720    -5.1390 c5         1 10C       0.112300
     16 O6          15.4350    -6.9770    -5.4990 os         1 10C      -0.464000
     17 O3          13.7400    -9.1370    -5.4740 oh         1 10C      -0.731000
     18 C9          15.4160    -7.4130    -6.8610 c5         1 10C       0.109600
     19 O3P         10.2740    -7.1360   -10.0960 o          1 10C      -0.917167
     20 P           10.9990    -8.0850    -9.1560 p5         1 10C       1.272900
     21 O1P         11.0970    -9.5340    -9.6170 o          1 10C      -0.917167
     22 O2P         10.6250    -7.9340    -7.6750 o          1 10C      -0.917167
     23 H5'1        14.5200    -8.0960    -9.1500 h1         1 10C      -0.004300
     24 H5'2        13.3940    -9.1410    -8.3170 h1         1 10C      -0.004300
     25 H1          14.3300    -4.7260    -5.8400 h2         1 10C       0.089700
     26 H6          11.1600    -6.1780    -6.8100 h4         1 10C       0.333000
     27 H5           9.0400    -5.1670    -6.0910 ha         1 10C       0.216000
     28 H3          12.2470    -7.7630    -5.8730 h1         1 10C       0.132700
     29 H6'1        15.9910    -6.7330    -7.4960 h1         1 10C       0.042200
     30 H6'2        15.8470    -8.4150    -6.9500 h1         1 10C       0.042200
     31 H41          8.0210    -3.4660    -4.6370 hn         1 10C       0.481500
     32 H42          8.9550    -2.5220    -3.5360 hn         1 10C       0.481500
     33 H2'1        13.9750    -6.7050    -4.0570 h1         1 10C       0.098700
     34 H3T         13.2330    -9.7880    -5.9690 ho         1 10C       0.526000
@<TRIPOS>BOND
     1     1     2 1   
     2     1    20 1   
     3     2     3 1   
     4     2    23 1   
     5     2    24 1   
     6     3     4 1   
     7     3    14 1   
     8     3    18 1   
     9     4     5 1   
    10     5     6 1   
    11     5    15 1   
    12     5    25 1   
    13     6     7 1   
    14     6    12 1   
    15     7     8 2   
    16     7    26 1   
    17     8     9 1   
    18     8    27 1   
    19     9    10 1   
    20     9    11 2   
    21    10    31 1   
    22    10    32 1   
    23    11    12 1   
    24    12    13 2   
    25    14    15 1   
    26    14    17 1   
    27    14    28 1   
    28    15    16 1   
    29    15    33 1   
    30    16    18 1   
    31    17    34 1   
    32    18    29 1   
    33    18    30 1   
    34    19    20 1   
    35    20    21 1   
    36    20    22 1   
@<TRIPOS>SUBSTRUCTURE
     1 10C         1 TEMP              0 ****  ****    0 ROOT
