@<TRIPOS>MOLECULE
10D
   23    22     1     0     0
SMALL
abcg2


@<TRIPOS>ATOM
      1 O14        -25.3040     0.8920   -16.3810 o          1 10D      -0.962833
      2 P10        -26.3160     0.5010   -17.4460 p5         1 10D       1.374900
      3 O11        -25.7680     0.5150   -18.8650 o          1 10D      -0.962833
      4 O15        -27.6700     1.1760   -17.3000 o          1 10D      -0.962833
      5 O9         -26.7150    -1.1250   -17.1540 os         1 10D      -0.733800
      6 P8         -25.8630    -2.4080   -16.7360 p5         1 10D       1.481800
      7 O12        -26.7240    -3.6100   -16.9980 o          1 10D      -0.899000
      8 O13        -24.4800    -2.3740   -17.3080 o          1 10D      -0.899000
      9 O7         -25.6520    -2.2500   -15.1240 os         1 10D      -0.581400
     10 C6         -26.7130    -2.5300   -14.1890 c3         1 10D       0.258800
     11 C5         -27.7470    -1.4480   -14.1260 c2         1 10D      -0.113200
     12 C3         -27.8830    -0.5420   -13.1590 c2         1 10D      -0.230400
     13 C4         -27.0130    -0.3930   -11.9440 c3         1 10D      -0.020900
     14 C1         -28.9740     0.4880   -13.1970 c3         1 10D       0.249800
     15 F2         -29.8070     0.3630   -14.3200 f          1 10D      -0.258000
     16 H4         -27.1860    -3.4710   -14.4730 h1         1 10D      -0.003800
     17 H5         -26.2220    -2.6740   -13.2310 h1         1 10D      -0.003800
     18 H6         -28.4340    -1.4120   -14.9590 ha         1 10D       0.225000
     19 H9         -26.5880     0.6130   -11.9070 hc         1 10D       0.011033
     20 H10        -27.5980    -0.5210   -11.0300 hc         1 10D       0.011033
     21 H11        -26.1930    -1.1050   -11.9280 hc         1 10D       0.011033
     22 H12        -28.5520     1.4940   -13.2240 h1         1 10D       0.003700
     23 H13        -29.6120     0.4040   -12.3150 h1         1 10D       0.003700
@<TRIPOS>BOND
     1     1     2 1   
     2     2     3 1   
     3     2     4 1   
     4     2     5 1   
     5     5     6 1   
     6     6     7 1   
     7     6     8 1   
     8     6     9 1   
     9     9    10 1   
    10    10    11 1   
    11    10    16 1   
    12    10    17 1   
    13    11    12 2   
    14    11    18 1   
    15    12    13 1   
    16    12    14 1   
    17    13    19 1   
    18    13    20 1   
    19    13    21 1   
    20    14    15 1   
    21    14    22 1   
    22    14    23 1   
@<TRIPOS>SUBSTRUCTURE
     1 10D         1 TEMP              0 ****  ****    0 ROOT
