@<TRIPOS>MOLECULE
126
   59    60     1     0     0
SMALL
abcg2


@<TRIPOS>ATOM
      1 P           -5.0470     7.7750    12.0690 p5         1 126       1.265900
      2 OP1         -6.4720     8.2950    11.9150 o          1 126      -0.917167
      3 OP2         -4.9260     6.2790    12.3350 o          1 126      -0.917167
      4 OP3         -4.1330     8.6660    12.9010 o          1 126      -0.917167
      5 O5          -4.3870     7.8560    10.4700 os         1 126      -0.599400
      6 C5          -4.4190     9.0910     9.8340 c3         1 126       0.246600
      7 C4          -3.4660     9.1390     8.6620 c5         1 126       0.152300
      8 O4          -2.1110     9.0480     9.1070 os         1 126      -0.423000
      9 C3          -3.5950     8.0180     7.6380 c5         1 126       0.145300
     10 O3          -4.6790     8.2600     6.7950 oh         1 126      -0.684000
     11 C2          -2.2100     8.0370     6.9800 c5         1 126       0.074300
     12 O2          -2.1750     9.0780     6.0470 os         1 126      -0.425000
     13 C1          -1.3190     8.3560     8.1970 c5         1 126       0.314700
     14 N1          -0.7780     7.1380     8.8320 n          1 126      -0.318000
     15 C9           0.3910     6.6380     8.3150 c          1 126       0.605000
     16 O6           0.9700     7.1430     7.3710 o          1 126      -0.630000
     17 N3           0.8640     5.5190     8.9460 ns         1 126      -0.471500
     18 C8           0.2920     4.8410    10.0090 c          1 126       0.581200
     19 O1           0.8340     3.8550    10.4750 o          1 126      -0.581000
     20 C7          -0.9560     5.4070    10.4750 cc         1 126      -0.276400
     21 C5M         -1.6690     4.7400    11.6060 c3         1 126      -0.035900
     22 C6          -1.4180     6.5200     9.8740 cd         1 126       0.017600
     23 CA          -1.0730     9.0380     5.1680 c3         1 126       0.154600
     24 CB          -1.1210    10.2300     4.2480 c3         1 126       0.161600
     25 OC          -2.2230    10.1310     3.3850 os         1 126      -0.428000
     26 CD          -2.3070    11.2130     2.4920 c3         1 126       0.165600
     27 CE          -3.4400    10.9950     1.5220 c3         1 126       0.160600
     28 OF          -3.1480     9.9030     0.6900 os         1 126      -0.433000
     29 CG          -4.1310     9.6820    -0.2880 c3         1 126       0.164600
     30 CH          -3.7370     8.5150    -1.1560 c3         1 126       0.157600
     31 OI          -2.5840     8.8330    -1.8900 os         1 126      -0.442000
     32 CK          -2.1800     7.7930    -2.7400 c3         1 126       0.148900
     33 H5          -5.4150     9.3290     9.4330 h1         1 126       0.020200
     34 H5'         -4.1630     9.9160    10.5150 h1         1 126       0.020200
     35 H4          -3.6150    10.1030     8.1560 h1         1 126       0.036700
     36 H3          -3.7020     7.0600     8.1640 h1         1 126       0.091700
     37 HO3         -4.8550     7.4670     6.2790 ho         1 126       0.488000
     38 H2          -1.9420     7.0780     6.5190 h1         1 126       0.046700
     39 H1          -0.4570     8.9640     7.9150 h2         1 126       0.075700
     40 H8           1.7320     5.1480     8.5800 hn         1 126       0.312500
     41 H71         -2.5910     5.2640    11.8570 hc         1 126       0.062367
     42 H72         -1.9280     3.7090    11.3560 hc         1 126       0.062367
     43 H73         -1.0470     4.7030    12.5020 hc         1 126       0.062367
     44 H6          -2.3410     6.9840    10.2000 h4         1 126       0.309000
     45 HA'1        -0.1210     9.0720     5.7090 h1         1 126       0.037700
     46 HA'2        -1.0770     8.1070     4.5860 h1         1 126       0.037700
     47 HB'1        -1.1620    11.1550     4.8410 h1         1 126       0.021700
     48 HB'2        -0.1790    10.2580     3.6830 h1         1 126       0.021700
     49 HD'1        -2.4880    12.1550     3.0280 h1         1 126       0.022700
     50 HD'2        -1.3660    11.3390     1.9370 h1         1 126       0.022700
     51 HE'1        -4.3800    10.8360     2.0710 h1         1 126       0.027200
     52 HE'2        -3.5680    11.9160     0.9370 h1         1 126       0.027200
     53 HG'1        -5.1040     9.4530     0.1710 h1         1 126       0.024200
     54 HG'2        -4.2770    10.5780    -0.9090 h1         1 126       0.024200
     55 HH'1        -3.5760     7.6230    -0.5320 h1         1 126       0.028700
     56 HH'2        -4.5820     8.2870    -1.8220 h1         1 126       0.028700
     57 HK'1        -1.2950     8.1240    -3.2820 h1         1 126       0.023033
     58 HK'2        -1.9240     6.8810    -2.1870 h1         1 126       0.023033
     59 HK'3        -2.9550     7.5330    -3.4720 h1         1 126       0.023033
@<TRIPOS>BOND
     1     1     2 1   
     2     1     3 1   
     3     1     4 1   
     4     1     5 1   
     5     5     6 1   
     6     6     7 1   
     7     6    33 1   
     8     6    34 1   
     9     7     8 1   
    10     7     9 1   
    11     7    35 1   
    12     8    13 1   
    13     9    10 1   
    14     9    11 1   
    15     9    36 1   
    16    10    37 1   
    17    11    12 1   
    18    11    13 1   
    19    11    38 1   
    20    12    23 1   
    21    13    14 1   
    22    13    39 1   
    23    14    15 1   
    24    14    22 1   
    25    15    16 2   
    26    15    17 1   
    27    17    18 1   
    28    17    40 1   
    29    18    19 2   
    30    18    20 1   
    31    20    21 1   
    32    20    22 2   
    33    21    41 1   
    34    21    42 1   
    35    21    43 1   
    36    22    44 1   
    37    23    24 1   
    38    23    45 1   
    39    23    46 1   
    40    24    25 1   
    41    24    47 1   
    42    24    48 1   
    43    25    26 1   
    44    26    27 1   
    45    26    49 1   
    46    26    50 1   
    47    27    28 1   
    48    27    51 1   
    49    27    52 1   
    50    28    29 1   
    51    29    30 1   
    52    29    53 1   
    53    29    54 1   
    54    30    31 1   
    55    30    55 1   
    56    30    56 1   
    57    31    32 1   
    58    32    57 1   
    59    32    58 1   
    60    32    59 1   
@<TRIPOS>SUBSTRUCTURE
     1 126         1 TEMP              0 ****  ****    0 ROOT
