@<TRIPOS>MOLECULE
18Q
   45    47     1     0     0
SMALL
abcg2


@<TRIPOS>ATOM
      1 P            2.3650    -6.2800     6.9910 p5         1 18Q       1.262900
      2 N1           1.6690   -11.4830     7.3390 n          1 18Q      -0.298000
      3 C2           1.2220   -12.7560     7.6540 c          1 18Q       0.615000
      4 O2           0.8000   -13.5410     6.8360 o          1 18Q      -0.587000
      5 N3           1.2930   -13.0610     8.9870 ns         1 18Q      -0.470500
      6 C4           1.7500   -12.2730    10.0240 c          1 18Q       0.607200
      7 O4           1.7520   -12.7220    11.1600 o          1 18Q      -0.607000
      8 C5           2.1880   -10.9550     9.6130 cc         1 18Q      -0.404400
      9 C6           2.1240   -10.6410     8.2950 cd         1 18Q       0.110600
     10 C1           1.7000   -11.0690     5.9290 c5         1 18Q       0.339700
     11 C7           0.7550    -9.9200     5.5970 c5         1 18Q      -0.112400
     12 C21          2.7170    -9.9250    10.5480 c          1 18Q       0.615300
     13 O22          3.0850    -8.8290    10.1410 o          1 18Q      -0.528100
     14 N23          2.7660   -10.2540    11.8460 ns         1 18Q      -0.525900
     15 C24          3.2560    -9.3280    12.8420 c3         1 18Q       0.186300
     16 C25          4.7500    -9.2580    12.9340 cc         1 18Q      -0.243300
     17 S26          5.7180    -8.5880    11.6730 ss         1 18Q       0.388000
     18 C27          7.1640    -8.8600    12.5530 cc         1 18Q      -0.302000
     19 C28          6.9180    -9.4400    13.7580 cd         1 18Q      -0.160000
     20 C29          5.5300    -9.6660    13.9740 cd         1 18Q      -0.167000
     21 C3           1.4830    -9.2300     4.4580 c5         1 18Q       0.135300
     22 O3           1.1490    -9.9080     3.2630 oh         1 18Q      -0.757000
     23 C8           2.9570    -9.4310     4.8400 c5         1 18Q       0.113300
     24 O1           2.9910   -10.6330     5.6190 os         1 18Q      -0.474000
     25 C9           3.5530    -8.2650     5.6030 c3         1 18Q       0.239600
     26 O5           2.7660    -7.9360     6.7020 os         1 18Q      -0.595400
     27 OP1          1.3060    -6.4430     8.0710 o          1 18Q      -0.914833
     28 OP2          1.8500    -5.7720     5.6450 o          1 18Q      -0.914833
     29 OP3          3.6800    -5.6540     7.4400 o          1 18Q      -0.914833
     30 HN3          0.9740   -13.9900     9.2350 hn         1 18Q       0.319500
     31 H6           2.4450    -9.6640     7.9470 h4         1 18Q       0.329000
     32 H1           1.4470   -11.9610     5.3560 h2         1 18Q       0.072700
     33 H2          -0.2350   -10.2750     5.3120 hc         1 18Q       0.091700
     34 H2'A         0.6460    -9.2340     6.4360 hc         1 18Q       0.091700
     35 HN23         2.5000   -11.1880    12.1240 hn         1 18Q       0.335500
     36 H24          2.8360    -8.3380    12.6550 h1         1 18Q       0.055700
     37 H24A         2.8720    -9.6550    13.8080 h1         1 18Q       0.055700
     38 H27          8.1190    -8.5850    12.1320 h4         1 18Q       0.135000
     39 H28          7.6900    -9.6990    14.4680 ha         1 18Q       0.105000
     40 H29          5.1220   -10.1130    14.8710 ha         1 18Q       0.109000
     41 H3           1.2380    -8.1640     4.4010 h1         1 18Q       0.130700
     42 HO3          1.6500    -9.5180     2.5410 ho         1 18Q       0.490000
     43 H4           3.5670    -9.5960     3.9430 h1         1 18Q       0.022700
     44 H5           4.5780    -8.5290     5.9040 h1         1 18Q       0.009200
     45 H5'A         3.6430    -7.4360     4.8890 h1         1 18Q       0.009200
@<TRIPOS>BOND
     1     1    26 1   
     2     1    27 1   
     3     1    28 1   
     4     1    29 1   
     5     2     3 1   
     6     2     9 1   
     7     2    10 1   
     8     3     4 2   
     9     3     5 1   
    10     5     6 1   
    11     5    30 1   
    12     6     7 2   
    13     6     8 1   
    14     8     9 2   
    15     8    12 1   
    16     9    31 1   
    17    10    11 1   
    18    10    24 1   
    19    10    32 1   
    20    11    21 1   
    21    11    33 1   
    22    11    34 1   
    23    12    13 2   
    24    12    14 1   
    25    14    15 1   
    26    14    35 1   
    27    15    16 1   
    28    15    36 1   
    29    15    37 1   
    30    16    17 1   
    31    16    20 2   
    32    17    18 1   
    33    18    19 2   
    34    18    38 1   
    35    19    20 1   
    36    19    39 1   
    37    20    40 1   
    38    21    22 1   
    39    21    23 1   
    40    21    41 1   
    41    22    42 1   
    42    23    24 1   
    43    23    25 1   
    44    23    43 1   
    45    25    26 1   
    46    25    44 1   
    47    25    45 1   
@<TRIPOS>SUBSTRUCTURE
     1 18Q         1 TEMP              0 ****  ****    0 ROOT
