@<TRIPOS>MOLECULE
1C3
   41    42     1     0     0
SMALL
abcg2


@<TRIPOS>ATOM
      1 C2          -1.1370     1.3680    -0.7940 ca         1 1C3      -0.210000
      2 O2          -4.0970    -0.2650     0.6090 os         1 1C3      -0.333100
      3 C4           1.2190     0.5450    -1.1360 c3         1 1C3       0.218100
      4 C5          -0.5750    -0.8880    -0.1620 ca         1 1C3      -0.210000
      5 C6          -1.8850    -1.1040     0.2510 ca         1 1C3       0.140100
      6 C9          -4.9980    -0.7420    -0.3790 c3         1 1C3       0.151900
      7 C8          -2.8260    -0.0720     0.1620 ca         1 1C3       0.004100
      8 C1          -2.4500     1.1640    -0.3660 ca         1 1C3       0.140100
      9 O20         -3.4190     2.0970    -0.4130 os         1 1C3      -0.339100
     10 C10         -3.0910     3.3830    -0.8960 c3         1 1C3       0.147900
     11 O1          -2.3440    -2.2650     0.7550 os         1 1C3      -0.339100
     12 C7          -1.4460    -3.3490     0.8630 c3         1 1C3       0.147900
     13 C3          -0.2070     0.3440    -0.6920 ca         1 1C3       0.010700
     14 N            2.1300     0.5400    -0.0170 n3         1 1C3      -0.687600
     15 CD           2.0490     1.7480     0.7850 c5         1 1C3       0.158800
     16 CA           3.5300     0.3870    -0.3690 c5         1 1C3       0.042500
     17 CB           4.2340     0.7070     0.9550 c5         1 1C3      -0.059400
     18 CG           3.3210     1.7380     1.6400 c5         1 1C3      -0.084400
     19 C            3.9510    -1.0010    -0.8920 c          1 1C3       0.724000
     20 O            3.1660    -1.9590    -0.7530 o          1 1C3      -0.727000
     21 H1          -0.8240     2.3200    -1.2030 ha         1 1C3       0.138500
     22 H17          1.4920    -0.2700    -1.8080 h1         1 1C3       0.042700
     23 H3           1.2940     1.4790    -1.7210 h1         1 1C3       0.042700
     24 H4           0.1740    -1.6660    -0.0890 ha         1 1C3       0.138500
     25 H5          -5.0930    -0.0440    -1.2150 h1         1 1C3       0.024033
     26 H6          -4.6940    -1.7160    -0.7710 h1         1 1C3       0.024033
     27 H7          -5.9720    -0.8480     0.0970 h1         1 1C3       0.024033
     28 H8          -4.0010     3.9760    -0.8340 h1         1 1C3       0.038033
     29 H9          -2.3170     3.8620    -0.2920 h1         1 1C3       0.038033
     30 H10         -2.7600     3.3580    -1.9380 h1         1 1C3       0.038033
     31 H11         -1.0370    -3.6430    -0.1070 h1         1 1C3       0.038033
     32 H12         -0.6170    -3.1290     1.5420 h1         1 1C3       0.038033
     33 H13         -2.0160    -4.1820     1.2680 h1         1 1C3       0.038033
     34 H15          2.0310     2.6500     0.1480 h1         1 1C3       0.012200
     35 H16          1.1330     1.7660     1.3800 h1         1 1C3       0.012200
     36 HA           3.8320     1.1450    -1.1170 h1         1 1C3       0.007700
     37 H18          4.3040    -0.1970     1.5640 hc         1 1C3       0.045200
     38 H19          5.2480     1.0710     0.7980 hc         1 1C3       0.045200
     39 H20          3.7730     2.7290     1.6700 hc         1 1C3       0.022200
     40 H21          3.1100     1.4540     2.6720 hc         1 1C3       0.022200
     41 OXT          5.0990    -1.0380    -1.3810 o          1 1C3      -0.727000
@<TRIPOS>BOND
     1     1     8 ar  
     2     1    13 ar  
     3     1    21 1   
     4     2     6 1   
     5     2     7 1   
     6     3    13 1   
     7     3    14 1   
     8     3    22 1   
     9     3    23 1   
    10     4     5 ar  
    11     4    13 ar  
    12     4    24 1   
    13     5     7 ar  
    14     5    11 1   
    15     6    25 1   
    16     6    26 1   
    17     6    27 1   
    18     7     8 ar  
    19     8     9 1   
    20     9    10 1   
    21    10    28 1   
    22    10    29 1   
    23    10    30 1   
    24    11    12 1   
    25    12    31 1   
    26    12    32 1   
    27    12    33 1   
    28    14    15 1   
    29    14    16 1   
    30    15    18 1   
    31    15    34 1   
    32    15    35 1   
    33    16    17 1   
    34    16    19 1   
    35    16    36 1   
    36    17    18 1   
    37    17    37 1   
    38    17    38 1   
    39    18    39 1   
    40    18    40 1   
    41    19    20 1   
    42    19    41 1   
@<TRIPOS>SUBSTRUCTURE
     1 1C3         1 TEMP              0 ****  ****    0 ROOT
