@<TRIPOS>MOLECULE
1CV
   99   101     1     0     0
SMALL
abcg2


@<TRIPOS>ATOM
      1 C1          81.6850   124.0090   106.0370 c3         1 1CV       0.287300
      2 C2          81.5080   124.0290   107.5490 c3         1 1CV      -0.089400
      3 S2          83.3230   124.5720   105.4470 sh         1 1CV      -0.579800
      4 C3          82.3270   123.0200   108.3710 c3         1 1CV       0.208000
      5 O3          83.8520   122.2480   110.6500 o          1 1CV      -0.729500
      6 C4          81.7600   123.0270   109.8030 c3         1 1CV      -0.239400
      7 O4          82.0110   121.7160   111.7810 o          1 1CV      -0.729500
      8 C5          82.6000   122.2510   110.8330 c          1 1CV       0.716000
      9 C6          82.2200   121.6110   107.7800 c3         1 1CV      -0.111100
     10 O7          83.6760   123.4390   108.4050 oh         1 1CV      -0.770000
     11 C15         69.9730   121.2420   109.2710 c5         1 1CV       0.288300
     12 C10         72.5930   123.3410   104.8690 c3         1 1CV       0.128300
     13 O10         73.0570   123.2970   103.5510 oh         1 1CV      -0.793000
     14 C11         71.5800   124.5040   105.0960 c3         1 1CV      -0.081000
     15 C12         70.4980   124.4450   104.0120 c3         1 1CV       0.248600
     16 C13         72.2660   125.8650   104.9590 c3         1 1CV      -0.078100
     17 C14         70.9110   124.4010   106.4670 c3         1 1CV      -0.078100
     18 N1A         69.4280   126.2140   110.2910 nb         1 1CV      -0.352000
     19 O1A         67.8850   119.0480   104.1290 o          1 1CV      -0.831500
     20 P1A         68.2010   120.4860   104.3800 p5         1 1CV       1.464800
     21 S1P         80.4280   124.9730   105.1470 ss         1 1CV      -0.400000
     22 C16         69.1720   120.0040   109.6780 c5         1 1CV       0.094300
     23 O2          69.9600   119.2310   110.5430 oh         1 1CV      -0.772000
     24 C2A         70.3130   125.3120   110.7080 ca         1 1CV       0.117900
     25 O2A         67.1490   121.5400   104.4510 o          1 1CV      -0.831500
     26 P2A         69.7980   122.3080   102.6320 p5         1 1CV       1.498800
     27 C2P         80.6110   126.6470   105.8220 c3         1 1CV       0.025600
     28 C17         68.9950   119.2570   108.3460 c5         1 1CV       0.202300
     29 O11         68.9340   117.8830   108.5100 os         1 1CV      -0.572400
     30 P3          67.3390   117.1720   108.5670 p5         1 1CV       1.252900
     31 N3A         70.3770   124.0250   110.4130 nb         1 1CV      -0.175000
     32 O3A         69.3480   120.8730   103.2490 os         1 1CV      -0.712800
     33 C3P         79.6750   126.9750   106.9820 c3         1 1CV       0.104000
     34 C18         70.2640   119.6560   107.5830 c5         1 1CV       0.125300
     35 O12         70.6600   120.9240   108.0940 os         1 1CV      -0.448000
     36 C4A         69.3990   123.6590   109.5880 ca         1 1CV       0.100500
     37 O4A         71.2230   122.1280   102.1460 o          1 1CV      -0.865500
     38 N4P         78.2950   126.7230   106.6540 ns         1 1CV      -0.515900
     39 C19         70.0990   119.7270   106.0830 c3         1 1CV       0.236600
     40 O5          69.0770   120.6390   105.7580 os         1 1CV      -0.609400
     41 C5A         68.4090   124.4790   109.0720 ca         1 1CV      -0.073600
     42 O5A         68.7780   122.8390   101.6790 o          1 1CV      -0.865500
     43 C5P         77.5690   125.7100   107.1600 c          1 1CV       0.603100
     44 O5P         77.9520   124.9880   108.0720 o          1 1CV      -0.591100
     45 C6A         68.4510   125.8300   109.4610 ca         1 1CV       0.412900
     46 N6A         67.5660   126.7320   109.0340 nv         1 1CV      -1.098900
     47 O6A         69.8290   123.1940   104.0090 os         1 1CV      -0.584400
     48 C6P         76.2250   125.4900   106.5050 c3         1 1CV      -0.185400
     49 N7A         67.5770   123.7740   108.2420 nc         1 1CV      -0.606100
     50 O7A         66.7580   117.5050   107.2000 o          1 1CV      -0.913500
     51 C7P         76.1640   124.0760   105.9180 c3         1 1CV       0.119000
     52 C8A         68.0520   122.5640   108.2600 cd         1 1CV       0.508700
     53 O8A         67.7000   115.7150   108.7960 o          1 1CV      -0.913500
     54 N8P         74.9370   123.8280   105.2060 ns         1 1CV      -0.518900
     55 N9A         69.1520   122.4210   109.0650 na         1 1CV      -0.261300
     56 O9A         66.6630   117.8810   109.7350 o          1 1CV      -0.913500
     57 C9P         73.7940   123.4650   105.8040 c          1 1CV       0.588100
     58 O9P         73.7090   123.2490   107.0070 o          1 1CV      -0.604100
     59 H1          81.5110   123.0010   105.6550 h2         1 1CV       0.102700
     60 H2          81.7200   125.0320   107.9290 hc         1 1CV       0.068700
     61 H2A         80.4490   123.8360   107.7380 hc         1 1CV       0.068700
     62 HS2         84.0530   124.0480   106.4420 hs         1 1CV       0.287800
     63 H4          81.6980   124.0670   110.1490 hc         1 1CV       0.046700
     64 H4A         80.7360   122.6470   109.7990 hc         1 1CV       0.046700
     65 H6          82.7250   120.8840   108.4180 hc         1 1CV       0.032367
     66 H6A         81.1800   121.2960   107.6780 hc         1 1CV       0.032367
     67 H6B         82.6890   121.5530   106.7960 hc         1 1CV       0.032367
     68 HO7         84.0210   123.0100   109.2360 ho         1 1CV       0.521000
     69 H9          70.6800   121.5190   110.0570 h2         1 1CV       0.076700
     70 H10         72.0940   122.4020   105.1500 h1         1 1CV       0.107700
     71 HO10        72.3810   122.8330   102.9840 ho         1 1CV       0.553000
     72 H12         69.7640   125.2310   104.2180 h1         1 1CV       0.001700
     73 H12A        70.9330   124.6780   103.0350 h1         1 1CV       0.001700
     74 H13         71.5310   126.6710   105.0070 hc         1 1CV       0.027700
     75 H13A        72.9820   126.0390   105.7640 hc         1 1CV       0.027700
     76 H13B        72.7970   125.9570   104.0110 hc         1 1CV       0.027700
     77 H14         70.1240   125.1530   106.5580 hc         1 1CV       0.027700
     78 H14A        70.4530   123.4240   106.6220 hc         1 1CV       0.027700
     79 H14B        71.6180   124.5660   107.2780 hc         1 1CV       0.027700
     80 H11         68.2190   120.2770   110.1420 h1         1 1CV       0.069700
     81 HO2         69.8040   118.3130   110.2690 ho         1 1CV       0.554000
     82 H2AA        71.0800   125.6880   111.3770 h5         1 1CV       0.007100
     83 H2P         81.6510   126.8040   106.1130 h1         1 1CV       0.064700
     84 H2PA        80.4130   127.3230   104.9890 h1         1 1CV       0.064700
     85 H3          68.1100   119.6410   107.8260 h1         1 1CV       0.081700
     86 H3P         79.9290   126.3970   107.8660 h1         1 1CV       0.053200
     87 H3PA        79.8050   128.0300   107.2360 h1         1 1CV       0.053200
     88 H15         71.0520   118.9190   107.7910 h1         1 1CV       0.037700
     89 HN4P        77.9030   127.2500   105.8890 hn         1 1CV       0.300500
     90 H5          71.0450   120.0330   105.6200 h1         1 1CV       0.027200
     91 H5'A        69.8750   118.7160   105.7270 h1         1 1CV       0.027200
     92 HN6A        67.6270   127.6880   109.3400 hn         1 1CV       0.483000
     93 HN6B        66.8160   126.4740   108.4170 hn         1 1CV       0.483000
     94 H6P         75.4420   125.6050   107.2590 hc         1 1CV       0.064700
     95 H6PA        76.0310   126.2220   105.7190 hc         1 1CV       0.064700
     96 H7P         76.9870   123.9330   105.2170 h1         1 1CV       0.052700
     97 H7PA        76.2840   123.3390   106.7110 h1         1 1CV       0.052700
     98 H8A         67.6450   121.7390   107.6980 h5         1 1CV       0.137800
     99 HN8P        74.9130   123.9740   104.2100 hn         1 1CV       0.335500
@<TRIPOS>BOND
     1     1     2 1   
     2     1     3 1   
     3     1    21 1   
     4     1    59 1   
     5     2     4 1   
     6     2    60 1   
     7     2    61 1   
     8     3    62 1   
     9     4     6 1   
    10     4     9 1   
    11     4    10 1   
    12     5     8 1   
    13     6     8 1   
    14     6    63 1   
    15     6    64 1   
    16     7     8 1   
    17     9    65 1   
    18     9    66 1   
    19     9    67 1   
    20    10    68 1   
    21    11    22 1   
    22    11    35 1   
    23    11    55 1   
    24    11    69 1   
    25    12    13 1   
    26    12    14 1   
    27    12    57 1   
    28    12    70 1   
    29    13    71 1   
    30    14    15 1   
    31    14    16 1   
    32    14    17 1   
    33    15    47 1   
    34    15    72 1   
    35    15    73 1   
    36    16    74 1   
    37    16    75 1   
    38    16    76 1   
    39    17    77 1   
    40    17    78 1   
    41    17    79 1   
    42    18    24 ar  
    43    18    45 ar  
    44    19    20 1   
    45    20    25 1   
    46    20    32 1   
    47    20    40 1   
    48    21    27 1   
    49    22    23 1   
    50    22    28 1   
    51    22    80 1   
    52    23    81 1   
    53    24    31 ar  
    54    24    82 1   
    55    26    32 1   
    56    26    37 1   
    57    26    42 1   
    58    26    47 1   
    59    27    33 1   
    60    27    83 1   
    61    27    84 1   
    62    28    29 1   
    63    28    34 1   
    64    28    85 1   
    65    29    30 1   
    66    30    50 1   
    67    30    53 1   
    68    30    56 1   
    69    31    36 ar  
    70    33    38 1   
    71    33    86 1   
    72    33    87 1   
    73    34    35 1   
    74    34    39 1   
    75    34    88 1   
    76    36    41 ar  
    77    36    55 1   
    78    38    43 1   
    79    38    89 1   
    80    39    40 1   
    81    39    90 1   
    82    39    91 1   
    83    41    45 ar  
    84    41    49 1   
    85    43    44 2   
    86    43    48 1   
    87    45    46 1   
    88    46    92 1   
    89    46    93 1   
    90    48    51 1   
    91    48    94 1   
    92    48    95 1   
    93    49    52 2   
    94    51    54 1   
    95    51    96 1   
    96    51    97 1   
    97    52    55 1   
    98    52    98 1   
    99    54    57 1   
   100    54    99 1   
   101    57    58 2   
@<TRIPOS>SUBSTRUCTURE
     1 1CV         1 TEMP              0 ****  ****    0 ROOT
