@<TRIPOS>MOLECULE
1JM
   27    27     1     0     0
SMALL
abcg2


@<TRIPOS>ATOM
      1 CAA         -2.5810     2.0460     1.5000 c3         1 1JM       0.165100
      2 N           -2.0000     1.4190     0.3320 n7         1 1JM      -0.831400
      3 CA          -2.3110     0.0080     0.2340 c3         1 1JM       0.038500
      4 C           -3.8030    -0.2730    -0.0910 c          1 1JM       0.720000
      5 OXT         -4.2200    -1.3910     0.2730 o          1 1JM      -0.740000
      6 CB          -1.4650    -0.6360    -0.8760 c3         1 1JM      -0.020100
      7 CG           0.0140    -0.4990    -0.6470 ca         1 1JM      -0.092300
      8 CD1          0.6530    -1.2230     0.3610 ca         1 1JM      -0.146000
      9 CE1          2.0100    -1.0720     0.6000 ca         1 1JM      -0.098000
     10 CZ           2.7830    -0.1950    -0.1610 ca         1 1JM      -0.154600
     11 CAL          4.2760    -0.0240     0.1050 c          1 1JM       0.716600
     12 OAB          4.8910     0.7480    -0.6570 o          1 1JM      -0.740000
     13 OAD          4.7500    -0.6690     1.0600 o          1 1JM      -0.740000
     14 CE2          2.1470     0.5220    -1.1700 ca         1 1JM      -0.098000
     15 CD2          0.7860     0.3770    -1.4060 ca         1 1JM      -0.146000
     16 H1          -3.6660     2.0900     1.4060 h1         1 1JM       0.006033
     17 H4          -2.3520     1.5310     2.4450 h1         1 1JM       0.006033
     18 H3          -2.2200     3.0720     1.5880 h1         1 1JM       0.006033
     19 H           -0.9940     1.5240     0.3880 hn         1 1JM       0.387000
     20 HA          -2.0750    -0.5220     1.1740 h1         1 1JM       0.005700
     21 H10         -1.7330    -1.6940    -0.9330 hc         1 1JM       0.046200
     22 H11         -1.7330    -0.1820    -1.8330 hc         1 1JM       0.046200
     23 H12          0.0770    -1.9160     0.9650 ha         1 1JM       0.091000
     24 H13          2.4790    -1.6470     1.3880 ha         1 1JM       0.111000
     25 H15          2.7230     1.2080    -1.7780 ha         1 1JM       0.111000
     26 H16          0.3160     0.9520    -2.1950 ha         1 1JM       0.091000
     27 O           -4.4360     0.5950    -0.7200 o          1 1JM      -0.740000
@<TRIPOS>BOND
     1     1     2 1   
     2     1    16 1   
     3     1    17 1   
     4     1    18 1   
     5     2     3 1   
     6     2    19 1   
     7     3     4 1   
     8     3     6 1   
     9     3    20 1   
    10     4     5 1   
    11     4    27 1   
    12     6     7 1   
    13     6    21 1   
    14     6    22 1   
    15     7     8 ar  
    16     7    15 ar  
    17     8     9 ar  
    18     8    23 1   
    19     9    10 ar  
    20     9    24 1   
    21    10    11 1   
    22    10    14 ar  
    23    11    12 1   
    24    11    13 1   
    25    14    15 ar  
    26    14    25 1   
    27    15    26 1   
@<TRIPOS>SUBSTRUCTURE
     1 1JM         1 TEMP              0 ****  ****    0 ROOT
