@<TRIPOS>MOLECULE
1NH
   62    63     1     0     0
SMALL
abcg2


@<TRIPOS>ATOM
      1 C4         190.5960   125.1270    30.3900 c3         1 1NH      -0.034900
      2 C1         190.8650   123.8030    31.0540 c2         1 1NH      -0.209400
      3 C3         189.6040   123.0370    31.3690 c3         1 1NH      -0.016200
      4 C5         189.7530   121.6660    32.0370 c3         1 1NH      -0.051200
      5 C7         188.4160   121.0080    32.1890 c2         1 1NH      -0.167200
      6 C6         187.7170   120.8130    33.3080 c2         1 1NH      -0.168400
      7 C8         188.1570   121.2020    34.6900 c3         1 1NH      -0.039900
      8 C9         186.3630   120.1660    33.2230 c3         1 1NH       0.195800
      9 O8         185.3470   121.0810    33.6820 os         1 1NH      -0.463000
     10 C11        184.1960   121.1140    32.8550 c3         1 1NH       0.213900
     11 C17        184.4500   121.7430    31.5010 ca         1 1NH      -0.147300
     12 C18        183.8330   121.2360    30.3580 ca         1 1NH      -0.133000
     13 C12        184.0470   121.8230    29.1160 ca         1 1NH      -0.131000
     14 C13        184.9030   122.9080    28.9970 ca         1 1NH      -0.091000
     15 C14        185.5300   123.4260    30.1340 ca         1 1NH      -0.169600
     16 C16        185.2870   122.8450    31.3790 ca         1 1NH      -0.033000
     17 C15        186.4110   124.6260    30.0660 c          1 1NH       0.572300
     18 O9         186.4570   125.4120    31.0030 o          1 1NH      -0.544100
     19 C19        187.2420   124.8610    28.8520 ca         1 1NH      -0.160600
     20 C24        187.7600   123.8050    28.0980 ca         1 1NH      -0.070000
     21 C23        188.6080   124.0610    27.0280 ca         1 1NH      -0.119000
     22 C22        188.9260   125.3720    26.6890 ca         1 1NH      -0.094000
     23 C21        188.4050   126.4290    27.4310 ca         1 1NH      -0.119000
     24 C20        187.5780   126.1740    28.5140 ca         1 1NH      -0.070000
     25 C2         192.0820   123.3260    31.3250 c2         1 1NH      -0.130200
     26 C10        193.3900   123.9790    31.0270 c3         1 1NH       0.234800
     27 O3         194.1420   124.0810    32.2510 os         1 1NH      -0.609400
     28 P2         195.5870   124.8410    32.2360 p5         1 1NH       1.489800
     29 O7         196.0890   124.7370    33.6440 o          1 1NH      -0.886000
     30 O1         195.4200   126.2040    31.6300 o          1 1NH      -0.886000
     31 O2         196.4020   123.8680    31.2650 os         1 1NH      -0.746800
     32 P1         197.8570   124.0820    30.4110 p5         1 1NH       1.376900
     33 O4         198.3760   122.6560    30.3170 o          1 1NH      -0.890833
     34 O5         197.4390   124.6770    29.0750 o          1 1NH      -0.890833
     35 O6         198.7030   125.0060    31.2710 o          1 1NH      -0.890833
     36 H41        189.8220   125.6700    30.9350 hc         1 1NH       0.028700
     37 H42        191.4760   125.7600    30.3200 hc         1 1NH       0.028700
     38 H43        190.2100   124.9720    29.3810 hc         1 1NH       0.028700
     39 H31        189.0430   122.9160    30.4380 hc         1 1NH       0.021700
     40 H32        188.9700   123.6690    31.9970 hc         1 1NH       0.021700
     41 H51        190.2550   121.7730    32.9970 hc         1 1NH       0.058700
     42 H52        190.3910   121.0330    31.4150 hc         1 1NH       0.058700
     43 H7         187.9550   120.7000    31.2540 ha         1 1NH       0.151000
     44 H81        187.4380   121.8910    35.1350 hc         1 1NH       0.038700
     45 H82        188.1940   120.3240    35.3390 hc         1 1NH       0.038700
     46 H83        189.1340   121.6780    34.7030 hc         1 1NH       0.038700
     47 H91        186.3160   119.2720    33.8540 h1         1 1NH       0.027700
     48 H92        186.1600   119.8700    32.1950 h1         1 1NH       0.027700
     49 H111       183.4580   121.7020    33.4030 h1         1 1NH       0.033200
     50 H112       183.7830   120.1090    32.7210 h1         1 1NH       0.033200
     51 H18        183.1870   120.3710    30.4410 ha         1 1NH       0.089000
     52 H12        183.5570   121.4250    28.2380 ha         1 1NH       0.093000
     53 H13        185.0700   123.3600    28.0310 ha         1 1NH       0.111000
     54 H16        185.7820   123.2410    32.2520 ha         1 1NH       0.146000
     55 H24        187.5280   122.7850    28.3640 ha         1 1NH       0.117000
     56 H23        189.0220   123.2390    26.4630 ha         1 1NH       0.109000
     57 H22        189.5820   125.5700    25.8540 ha         1 1NH       0.110000
     58 H21        188.6510   127.4480    27.1690 ha         1 1NH       0.109000
     59 H20        187.1840   126.9870    29.1060 ha         1 1NH       0.117000
     60 H2         192.1730   122.3570    31.7990 ha         1 1NH       0.153000
     61 H101       193.2740   124.9690    30.5920 h1         1 1NH       0.045700
     62 H102       193.9640   123.3710    30.3220 h1         1 1NH       0.045700
@<TRIPOS>BOND
     1     1     2 1   
     2     1    36 1   
     3     1    37 1   
     4     1    38 1   
     5     2     3 1   
     6     2    25 2   
     7     3     4 1   
     8     3    39 1   
     9     3    40 1   
    10     4     5 1   
    11     4    41 1   
    12     4    42 1   
    13     5     6 2   
    14     5    43 1   
    15     6     7 1   
    16     6     8 1   
    17     7    44 1   
    18     7    45 1   
    19     7    46 1   
    20     8     9 1   
    21     8    47 1   
    22     8    48 1   
    23     9    10 1   
    24    10    11 1   
    25    10    49 1   
    26    10    50 1   
    27    11    12 ar  
    28    11    16 ar  
    29    12    13 ar  
    30    12    51 1   
    31    13    14 ar  
    32    13    52 1   
    33    14    15 ar  
    34    14    53 1   
    35    15    16 ar  
    36    15    17 1   
    37    16    54 1   
    38    17    18 2   
    39    17    19 1   
    40    19    20 ar  
    41    19    24 ar  
    42    20    21 ar  
    43    20    55 1   
    44    21    22 ar  
    45    21    56 1   
    46    22    23 ar  
    47    22    57 1   
    48    23    24 ar  
    49    23    58 1   
    50    24    59 1   
    51    25    26 1   
    52    25    60 1   
    53    26    27 1   
    54    26    61 1   
    55    26    62 1   
    56    27    28 1   
    57    28    29 1   
    58    28    30 1   
    59    28    31 1   
    60    31    32 1   
    61    32    33 1   
    62    32    34 1   
    63    32    35 1   
@<TRIPOS>SUBSTRUCTURE
     1 1NH         1 TEMP              0 ****  ****    0 ROOT
