@<TRIPOS>MOLECULE
1PW
   66    65     1     0     0
SMALL
abcg2


@<TRIPOS>ATOM
      1 CAA          8.7980    27.4760    54.5630 c3         1 1PW      -0.087100
      2 CAJ          8.9990    28.7250    53.7150 c3         1 1PW      -0.074400
      3 CAL         10.2030    29.5700    54.1280 c3         1 1PW      -0.071400
      4 CAN         11.5450    28.8650    53.9750 c3         1 1PW      -0.077400
      5 CAP         12.7290    29.7510    54.3420 c3         1 1PW      -0.074400
      6 CAR         14.0680    29.0290    54.2530 c3         1 1PW      -0.076400
      7 CAT         15.2460    29.9230    54.6250 c3         1 1PW      -0.070400
      8 CAU         16.5790    29.2130    54.8490 c3         1 1PW      -0.066400
      9 CAS         17.1900    28.5140    53.6300 c3         1 1PW      -0.077400
     10 CAQ         16.7060    27.0890    53.3800 c3         1 1PW      -0.073400
     11 CAO         17.4790    26.3980    52.2640 c3         1 1PW      -0.079400
     12 CAM         16.9340    25.0150    51.9290 c3         1 1PW      -0.069400
     13 CAK         17.8020    24.2220    50.9450 c3         1 1PW      -0.026200
     14 CAH         18.0830    24.9760    49.6840 c2         1 1PW      -0.260200
     15 CAI         17.4980    24.7570    48.5120 c2         1 1PW      -0.216200
     16 CAZ         17.7440    25.6000    47.3010 c3         1 1PW       0.179500
     17 OAE         18.0490    24.8040    46.1710 oh         1 1PW      -0.637000
     18 CBA         16.5070    26.4360    46.9220 c3         1 1PW       0.103700
     19 NAW         16.0830    27.2450    48.0420 ns         1 1PW      -0.459900
     20 CAY         15.0850    26.9340    48.8840 c          1 1PW       0.593100
     21 CAB         14.8330    27.9400    49.9830 c3         1 1PW      -0.180100
     22 OAC         14.4060    25.9200    48.7850 o          1 1PW      -0.678100
     23 CAV         16.7650    27.3530    45.7300 c3         1 1PW       0.235600
     24 OAX         17.7200    28.3030    46.0890 os         1 1PW      -0.602400
     25 PBB         18.1160    29.5200    44.9320 p5         1 1PW       1.271900
     26 OAF         18.8260    28.7660    43.8120 o          1 1PW      -0.922167
     27 OAG         16.7680    30.1130    44.5320 o          1 1PW      -0.922167
     28 OAD         19.0070    30.4200    45.7770 o          1 1PW      -0.922167
     29 H1           7.8830    26.9530    54.2810 hc         1 1PW       0.027700
     30 H2           9.6220    26.7700    54.4540 hc         1 1PW       0.027700
     31 H3           8.7190    27.7290    55.6220 hc         1 1PW       0.027700
     32 H4           8.1000    29.3440    53.7720 hc         1 1PW       0.036700
     33 H5           9.1010    28.4390    52.6630 hc         1 1PW       0.036700
     34 H6          10.0780    29.8870    55.1690 hc         1 1PW       0.032200
     35 H7          10.2130    30.4870    53.5310 hc         1 1PW       0.032200
     36 H8          11.6570    28.5170    52.9420 hc         1 1PW       0.042700
     37 H9          11.5690    27.9680    54.6020 hc         1 1PW       0.042700
     38 H10         12.5940    30.1310    55.3610 hc         1 1PW       0.031700
     39 H11         12.7430    30.6320    53.6910 hc         1 1PW       0.031700
     40 H12         14.1950    28.6400    53.2380 hc         1 1PW       0.044200
     41 H13         14.0500    28.1540    54.9120 hc         1 1PW       0.044200
     42 H14         14.9930    30.4600    55.5450 hc         1 1PW       0.032700
     43 H15         15.3730    30.6920    53.8560 hc         1 1PW       0.032700
     44 H16         16.4690    28.4880    55.6630 hc         1 1PW       0.027200
     45 H17         17.2910    29.9600    55.2120 hc         1 1PW       0.027200
     46 H18         18.2770    28.4790    53.7580 hc         1 1PW       0.045200
     47 H19         17.0180    29.1220    52.7340 hc         1 1PW       0.045200
     48 H20         15.6400    27.0850    53.1360 hc         1 1PW       0.029200
     49 H21         16.8050    26.5060    54.3020 hc         1 1PW       0.029200
     50 H22         18.5340    26.3180    52.5510 hc         1 1PW       0.047700
     51 H23         17.4580    27.0290    51.3680 hc         1 1PW       0.047700
     52 H24         15.9250    25.1140    51.5150 hc         1 1PW       0.033200
     53 H25         16.8320    24.4330    52.8500 hc         1 1PW       0.033200
     54 H26         17.3060    23.2770    50.7110 hc         1 1PW       0.026200
     55 H27         18.7480    23.9700    51.4350 hc         1 1PW       0.026200
     56 H28         18.7970    25.7930    49.7590 ha         1 1PW       0.173000
     57 H29         16.7750    23.9510    48.4040 ha         1 1PW       0.166000
     58 H30         18.5650    26.2980    47.5200 h1         1 1PW       0.075700
     59 H31         18.8380    24.2920    46.3720 ho         1 1PW       0.418000
     60 H32         15.6920    25.7510    46.6720 h1         1 1PW       0.046700
     61 H33         16.5890    28.1050    48.1810 hn         1 1PW       0.351500
     62 H34         13.7980    28.2790    49.9340 hc         1 1PW       0.044033
     63 H35         14.9680    27.4590    50.9520 hc         1 1PW       0.044033
     64 H36         15.4830    28.8120    49.9410 hc         1 1PW       0.044033
     65 H37         15.8100    27.8200    45.4500 h1         1 1PW       0.018200
     66 H38         17.0770    26.7470    44.8700 h1         1 1PW       0.018200
@<TRIPOS>BOND
     1     1     2 1   
     2     1    29 1   
     3     1    30 1   
     4     1    31 1   
     5     2     3 1   
     6     2    32 1   
     7     2    33 1   
     8     3     4 1   
     9     3    34 1   
    10     3    35 1   
    11     4     5 1   
    12     4    36 1   
    13     4    37 1   
    14     5     6 1   
    15     5    38 1   
    16     5    39 1   
    17     6     7 1   
    18     6    40 1   
    19     6    41 1   
    20     7     8 1   
    21     7    42 1   
    22     7    43 1   
    23     8     9 1   
    24     8    44 1   
    25     8    45 1   
    26     9    10 1   
    27     9    46 1   
    28     9    47 1   
    29    10    11 1   
    30    10    48 1   
    31    10    49 1   
    32    11    12 1   
    33    11    50 1   
    34    11    51 1   
    35    12    13 1   
    36    12    52 1   
    37    12    53 1   
    38    13    14 1   
    39    13    54 1   
    40    13    55 1   
    41    14    15 2   
    42    14    56 1   
    43    15    16 1   
    44    15    57 1   
    45    16    17 1   
    46    16    18 1   
    47    16    58 1   
    48    17    59 1   
    49    18    19 1   
    50    18    23 1   
    51    18    60 1   
    52    19    20 1   
    53    19    61 1   
    54    20    21 1   
    55    20    22 2   
    56    21    62 1   
    57    21    63 1   
    58    21    64 1   
    59    23    24 1   
    60    23    65 1   
    61    23    66 1   
    62    24    25 1   
    63    25    26 1   
    64    25    27 1   
    65    25    28 1   
@<TRIPOS>SUBSTRUCTURE
     1 1PW         1 TEMP              0 ****  ****    0 ROOT
