@<TRIPOS>MOLECULE
1T2
   37    39     1     0     0
SMALL
abcg2


@<TRIPOS>ATOM
      1 C01        -14.5890   -43.0180    -0.0290 ca         1 1T2       0.079000
      2 C02        -15.0870   -44.2950     0.2520 ca         1 1T2      -0.107000
      3 C03        -14.2140   -45.3510     0.4220 ca         1 1T2      -0.107000
      4 C04        -12.8610   -45.0800     0.3060 ca         1 1T2       0.046100
      5 C05        -12.3460   -43.8050     0.0360 ca         1 1T2      -0.098800
      6 C06        -13.2420   -42.7450    -0.1410 ca         1 1T2      -0.036000
      7 C08        -10.7060   -45.3330     0.2200 cc         1 1T2      -0.061100
      8 C09        -10.9180   -44.0050    -0.0060 cd         1 1T2      -0.021600
      9 C11         -9.4200   -46.1050     0.2370 c          1 1T2       0.747200
     10 C15         -9.8030   -41.8170    -0.2010 c          1 1T2       0.603700
     11 C16         -8.4600   -41.2180    -0.4980 ca         1 1T2      -0.077600
     12 C18         -8.1940   -39.9460     0.0050 ca         1 1T2      -0.087500
     13 C19         -6.9770   -39.3350    -0.2350 ca         1 1T2      -0.036000
     14 C20         -6.0220   -40.0040    -0.9900 ca         1 1T2      -0.256500
     15 C21         -6.2740   -41.2610    -1.5170 ca         1 1T2      -0.036000
     16 C22         -7.4970   -41.8640    -1.2690 ca         1 1T2      -0.087500
     17 C26         -3.5260   -39.5530     0.1850 c3         1 1T2      -0.337100
     18 N14         -9.8480   -43.1610    -0.2670 ns         1 1T2      -0.378100
     19 O07        -11.8800   -45.9880     0.4150 os         1 1T2      -0.124200
     20 O12         -9.4790   -47.3110     0.4940 o          1 1T2      -0.688500
     21 O13         -8.4040   -45.4130    -0.0240 o          1 1T2      -0.688500
     22 O17        -10.7510   -41.1050     0.0860 o          1 1T2      -0.624100
     23 O24         -4.6780   -37.7820    -1.3900 o          1 1T2      -0.534500
     24 O25         -3.8050   -39.9080    -2.4100 o          1 1T2      -0.534500
     25 S23         -4.4530   -39.2220    -1.2960 sy         1 1T2       1.057500
     26 CL10       -15.7260   -41.7200    -0.2390 cl         1 1T2      -0.245000
     27 H1         -16.1530   -44.4560     0.3320 ha         1 1T2       0.113000
     28 H2         -14.5770   -46.3480     0.6340 ha         1 1T2       0.124000
     29 H3         -12.8950   -41.7470    -0.3530 ha         1 1T2       0.153000
     30 H4          -8.9410   -39.4290     0.5920 ha         1 1T2       0.143500
     31 H5          -6.7810   -38.3490     0.1650 ha         1 1T2       0.132000
     32 H6          -5.5370   -41.7710    -2.1220 ha         1 1T2       0.132000
     33 H7          -7.6890   -42.8350    -1.7070 ha         1 1T2       0.143500
     34 H8          -4.0400   -39.1170     1.0390 h1         1 1T2       0.100367
     35 H9          -3.4220   -40.6280     0.3120 h1         1 1T2       0.100367
     36 H10         -2.5470   -39.0910     0.0630 h1         1 1T2       0.100367
     37 H11         -8.9830   -43.7160    -0.3060 hn         1 1T2       0.388500
@<TRIPOS>BOND
     1     1     2 ar  
     2     1     6 ar  
     3     1    26 1   
     4     2     3 ar  
     5     2    27 1   
     6     3     4 ar  
     7     3    28 1   
     8     4     5 ar  
     9     4    19 1   
    10     5     6 ar  
    11     5     8 1   
    12     6    29 1   
    13     7     8 2   
    14     7     9 1   
    15     7    19 1   
    16     8    18 1   
    17     9    20 1   
    18     9    21 1   
    19    10    11 1   
    20    10    18 1   
    21    10    22 2   
    22    11    12 ar  
    23    11    16 ar  
    24    12    13 ar  
    25    12    30 1   
    26    13    14 ar  
    27    13    31 1   
    28    14    15 ar  
    29    14    25 1   
    30    15    16 ar  
    31    15    32 1   
    32    16    33 1   
    33    17    25 1   
    34    17    34 1   
    35    17    35 1   
    36    17    36 1   
    37    18    37 1   
    38    23    25 2   
    39    24    25 2   
@<TRIPOS>SUBSTRUCTURE
     1 1T2         1 TEMP              0 ****  ****    0 ROOT
