@<TRIPOS>MOLECULE
1TP
   54    55     1     0     0
SMALL
abcg2


@<TRIPOS>ATOM
      1 N1         -27.2880   -63.9730    26.0590 nb         1 1TP      -0.253000
      2 C2         -26.0540   -63.5330    25.8740 ca         1 1TP       0.138300
      3 C2A        -25.6700   -62.2300    26.5050 c3         1 1TP      -0.119400
      4 N3         -25.1120   -64.1480    25.1670 nb         1 1TP      -0.303000
      5 C4         -25.4100   -65.3150    24.5990 ca         1 1TP       0.380900
      6 N4         -24.4450   -65.9420    23.8960 nv         1 1TP      -1.044900
      7 C5         -26.6940   -65.8930    24.7490 ca         1 1TP      -0.195300
      8 C6         -27.5770   -65.1490    25.4880 ca         1 1TP       0.096900
      9 C7         -27.0570   -67.2610    24.2360 c3         1 1TP       0.256100
     10 N2         -26.6230   -67.5340    22.8760 n3         1 1TP      -0.804600
     11 C8         -26.1140   -68.8610    22.5880 c5         1 1TP       0.336500
     12 S1         -25.5570   -68.7230    20.8460 ss         1 1TP      -0.368000
     13 C10        -26.4480   -67.1540    20.5490 c5         1 1TP       0.100300
     14 C9         -27.3750   -66.9890    21.7550 c5         1 1TP       0.185500
     15 C4A        -27.7730   -65.5330    21.9300 c3         1 1TP      -0.080100
     16 C5A        -27.1580   -67.1480    19.2070 c3         1 1TP      -0.078400
     17 C5B        -26.1770   -67.1980    18.0480 c3         1 1TP       0.228600
     18 O5G        -26.8660   -66.9750    16.8390 os         1 1TP      -0.594400
     19 P1         -26.0020   -66.5790    15.4750 p5         1 1TP       1.485800
     20 O11        -25.2370   -67.9350    15.0940 os         1 1TP      -0.736800
     21 O12        -27.0460   -66.1870    14.4700 o          1 1TP      -0.910000
     22 O13        -24.9490   -65.5720    15.8590 o          1 1TP      -0.910000
     23 P2         -25.7840   -69.5760    14.8790 p5         1 1TP       1.355900
     24 O21        -27.2080   -69.4650    14.3550 o          1 1TP      -0.952500
     25 O22        -24.7620   -70.0850    13.8710 o          1 1TP      -0.952500
     26 O23        -25.6580   -70.1790    16.2740 o          1 1TP      -0.952500
     27 C15        -26.9990   -70.1150    22.8620 c3         1 1TP       0.020000
     28 O25        -27.1020   -70.2440    24.2660 oh         1 1TP      -0.745000
     29 C35        -26.3050   -71.3580    22.3180 c3         1 1TP      -0.065100
     30 C25        -28.4520   -69.9950    22.3120 c          1 1TP       0.688000
     31 O35        -29.3050   -69.7180    23.1920 o          1 1TP      -0.701000
     32 O45        -28.6570   -70.1950    21.1080 o          1 1TP      -0.701000
     33 H2A1       -26.5180   -61.7730    27.0090 hc         1 1TP       0.035033
     34 H2A2       -25.2910   -61.5350    25.7550 hc         1 1TP       0.035033
     35 H2A3       -24.8710   -62.3780    27.2340 hc         1 1TP       0.035033
     36 H4'1       -23.6190   -65.4090    23.6730 hn         1 1TP       0.504000
     37 H4'2       -24.7630   -66.6060    23.2020 hn         1 1TP       0.504000
     38 H6         -28.5890   -65.5170    25.6360 h4         1 1TP       0.013100
     39 H7'1       -28.1340   -67.4170    24.3710 h1         1 1TP       0.058200
     40 H7'2       -26.5680   -67.9960    24.8770 h1         1 1TP       0.058200
     41 H2         -25.2170   -69.0160    23.2010 h2         1 1TP       0.034700
     42 H5         -25.7110   -66.3450    20.5700 h1         1 1TP       0.039700
     43 H4         -28.2950   -67.5560    21.5650 h1         1 1TP       0.091700
     44 H4A1       -28.2440   -65.1770    21.0130 hc         1 1TP       0.024033
     45 H4A2       -26.9120   -64.8960    22.1340 hc         1 1TP       0.024033
     46 H4A3       -28.5010   -65.3990    22.7300 hc         1 1TP       0.024033
     47 H5A1       -27.7390   -66.2230    19.1300 hc         1 1TP       0.051700
     48 H5A2       -27.8630   -67.9820    19.1570 hc         1 1TP       0.051700
     49 H5B1       -25.6720   -68.1700    18.0280 h1         1 1TP       0.029200
     50 H5B2       -25.4090   -66.4330    18.2070 h1         1 1TP       0.029200
     51 H25        -28.0380   -69.9990    24.4160 ho         1 1TP       0.467000
     52 H351       -26.8490   -72.2540    22.6230 hc         1 1TP       0.029700
     53 H352       -25.2870   -71.4420    22.7070 hc         1 1TP       0.029700
     54 H353       -26.2510   -71.3560    21.2320 hc         1 1TP       0.029700
@<TRIPOS>BOND
     1     1     2 ar  
     2     1     8 ar  
     3     2     3 1   
     4     2     4 ar  
     5     3    33 1   
     6     3    34 1   
     7     3    35 1   
     8     4     5 ar  
     9     5     6 1   
    10     5     7 ar  
    11     6    36 1   
    12     6    37 1   
    13     7     8 ar  
    14     7     9 1   
    15     8    38 1   
    16     9    10 1   
    17     9    39 1   
    18     9    40 1   
    19    10    11 1   
    20    10    14 1   
    21    11    12 1   
    22    11    27 1   
    23    11    41 1   
    24    12    13 1   
    25    13    14 1   
    26    13    16 1   
    27    13    42 1   
    28    14    15 1   
    29    14    43 1   
    30    15    44 1   
    31    15    45 1   
    32    15    46 1   
    33    16    17 1   
    34    16    47 1   
    35    16    48 1   
    36    17    18 1   
    37    17    49 1   
    38    17    50 1   
    39    18    19 1   
    40    19    20 1   
    41    19    21 1   
    42    19    22 1   
    43    20    23 1   
    44    23    24 1   
    45    23    25 1   
    46    23    26 1   
    47    27    28 1   
    48    27    29 1   
    49    27    30 1   
    50    28    51 1   
    51    29    52 1   
    52    29    53 1   
    53    29    54 1   
    54    30    31 1   
    55    30    32 1   
@<TRIPOS>SUBSTRUCTURE
     1 1TP         1 TEMP              0 ****  ****    0 ROOT
