@<TRIPOS>MOLECULE
E1O
   34    34     1     0     0
SMALL
abcg2


@<TRIPOS>ATOM
      1 C6          -0.8150    -7.8770    -2.9870 ca         1 E1O       0.237900
      2 C5          -0.5770    -7.3140    -1.7480 ca         1 E1O      -0.018300
      3 N1          -0.1600    -7.5380    -4.0980 nb         1 E1O      -0.693000
      4 C2           0.7840    -6.6170    -4.0450 ca         1 E1O       0.224300
      5 C4           0.4170    -6.3270    -1.6670 ca         1 E1O      -0.196900
      6 CB           3.4190    -4.7800     1.3980 c3         1 E1O       0.138600
      7 CA           2.0580    -4.2730     0.9410 c3         1 E1O      -0.010500
      8 C            2.0550    -2.7170     0.8440 c          1 E1O       0.741000
      9 OXT          2.6110    -2.1280     1.7900 o          1 E1O      -0.735500
     10 N            1.7320    -4.8760    -0.3260 n2         1 E1O      -0.661900
     11 P           -2.5630    -6.5620     1.5280 p5         1 E1O       1.267900
     12 O1P         -3.6220    -5.4740     1.5010 o          1 E1O      -0.918500
     13 O2P         -3.0370    -7.9370     1.9880 o          1 E1O      -0.918500
     14 C5A         -1.3750    -7.7540    -0.5470 c3         1 E1O       0.283900
     15 C2A          1.5120    -6.2580    -5.3040 c3         1 E1O      -0.100400
     16 C3           1.1180    -5.9840    -2.8310 ca         1 E1O       0.152100
     17 O3           2.0910    -5.0780    -2.8360 oh         1 E1O      -0.605100
     18 C4A          0.7470    -5.6800    -0.3960 ce         1 E1O       0.487800
     19 H1          -1.5760    -8.6440    -3.0940 h4         1 E1O      -0.005900
     20 H2           4.4410    -6.7360     2.3420 hs         1 E1O       0.137800
     21 H3           4.1970    -4.4820     0.6940 h1         1 E1O       0.046700
     22 H4           3.6500    -4.3590     2.3720 h1         1 E1O       0.046700
     23 H5           1.3130    -4.5560     1.7010 h1         1 E1O       0.105700
     24 H9          -1.9180    -8.6710    -0.8170 h1         1 E1O      -0.001800
     25 H10         -0.6810    -8.0400     0.2540 h1         1 E1O      -0.001800
     26 H11          1.1070    -6.8220    -6.1410 hc         1 E1O       0.016367
     27 H12          1.4240    -5.1940    -5.5320 hc         1 E1O       0.016367
     28 H13          2.5780    -6.4780    -5.2280 hc         1 E1O       0.016367
     29 H14          2.2080    -4.7740    -1.8830 ho         1 E1O       0.550000
     30 H15          0.1240    -5.8990     0.4790 h4         1 E1O       0.103800
     31 SG           3.3840    -6.6050     1.5320 sh         1 E1O      -0.480800
     32 O4P         -2.2470    -6.7370    -0.1550 os         1 E1O      -0.571400
     33 O            1.4770    -2.2180    -0.1340 o          1 E1O      -0.735500
     34 O3P         -1.2110    -6.1460     2.1190 o          1 E1O      -0.918500
@<TRIPOS>BOND
     1     1     2 ar  
     2     1     3 ar  
     3     1    19 1   
     4     2     5 ar  
     5     2    14 1   
     6     3     4 ar  
     7     4    15 1   
     8     4    16 ar  
     9     5    16 ar  
    10     5    18 1   
    11     6     7 1   
    12     6    21 1   
    13     6    22 1   
    14     6    31 1   
    15     7     8 1   
    16     7    10 1   
    17     7    23 1   
    18     8     9 1   
    19     8    33 1   
    20    10    18 2   
    21    11    12 1   
    22    11    13 1   
    23    11    32 1   
    24    11    34 1   
    25    14    24 1   
    26    14    25 1   
    27    14    32 1   
    28    15    26 1   
    29    15    27 1   
    30    15    28 1   
    31    16    17 1   
    32    17    29 1   
    33    18    30 1   
    34    20    31 1   
@<TRIPOS>SUBSTRUCTURE
     1 E1O         1 TEMP              0 ****  ****    0 ROOT
