@<TRIPOS>MOLECULE
E1R
   39    39     1     0     0
SMALL
abcg2


@<TRIPOS>ATOM
      1 O2P        -32.4760    44.2640    30.9390 o          1 E1R      -0.925833
      2 P          -33.5510    43.1910    30.8200 p5         1 E1R       1.272900
      3 O3P        -33.0270    41.7690    30.6930 o          1 E1R      -0.925833
      4 O1P        -34.6920    43.3610    31.8210 o          1 E1R      -0.925833
      5 O4P        -34.2640    43.4200    29.3050 os         1 E1R      -0.574400
      6 C5A        -34.8490    44.6880    29.0430 c3         1 E1R       0.263900
      7 C5         -36.0180    44.5350    28.1090 ca         1 E1R      -0.016300
      8 C6         -35.9530    45.0300    26.8190 ca         1 E1R       0.238900
      9 N1         -36.9490    44.9280    25.9260 nb         1 E1R      -0.691000
     10 C2         -38.0810    44.3270    26.2780 ca         1 E1R       0.226300
     11 C2A        -39.1880    44.2110    25.2730 c3         1 E1R      -0.103400
     12 C3         -38.2530    43.7980    27.5740 ca         1 E1R       0.149100
     13 O3         -39.4230    43.2140    27.8790 oh         1 E1R      -0.613100
     14 C4         -37.2050    43.8910    28.5070 ca         1 E1R      -0.196900
     15 C4A        -37.3530    43.3150    29.8430 ce         1 E1R       0.483800
     16 N          -38.4640    42.7850    30.1890 n2         1 E1R      -0.653900
     17 CA         -38.6020    42.1790    31.4930 c3         1 E1R      -0.018500
     18 C          -38.8970    40.6440    31.3970 c          1 E1R       0.742000
     19 O          -38.8850    40.1160    30.2650 o          1 E1R      -0.732500
     20 OXT        -39.0980    40.0810    32.4990 o          1 E1R      -0.732500
     21 CB         -39.6840    42.8970    32.2790 c3         1 E1R       0.192600
     22 OG         -40.9450    42.6750    31.6060 os         1 E1R      -0.404100
     23 C1A        -41.9990    43.3870    32.0210 c          1 E1R       0.585100
     24 OAC        -41.9460    44.1890    32.9290 o          1 E1R      -0.551000
     25 C3A        -43.2260    43.0690    31.2160 c3         1 E1R      -0.158100
     26 H3         -34.1110    45.3580    28.5870 h1         1 E1R       0.008700
     27 H4         -35.1790    45.1520    29.9780 h1         1 E1R       0.008700
     28 H5         -35.0530    45.5330    26.4810 h4         1 E1R      -0.003900
     29 H6         -38.8770    44.6560    24.3300 hc         1 E1R       0.020033
     30 H7         -39.4570    43.1650    25.1050 hc         1 E1R       0.020033
     31 H8         -40.0910    44.7160    25.6250 hc         1 E1R       0.020033
     32 H9         -39.3320    42.9080    28.8480 ho         1 E1R       0.554000
     33 H10        -36.4920    43.3340    30.5190 h4         1 E1R       0.094800
     34 H11        -37.6750    42.2810    32.0720 h1         1 E1R       0.102700
     35 H13        -39.7440    42.4940    33.2880 h1         1 E1R       0.040700
     36 H14        -39.4900    43.9680    32.3230 h1         1 E1R       0.040700
     37 H15        -44.0830    43.6000    31.6220 hc         1 E1R       0.052367
     38 H16        -43.0650    43.3680    30.1790 hc         1 E1R       0.052367
     39 H17        -43.4100    41.9950    31.2260 hc         1 E1R       0.052367
@<TRIPOS>BOND
     1     1     2 1   
     2     2     3 1   
     3     2     4 1   
     4     2     5 1   
     5     5     6 1   
     6     6     7 1   
     7     6    26 1   
     8     6    27 1   
     9     7     8 ar  
    10     7    14 ar  
    11     8     9 ar  
    12     8    28 1   
    13     9    10 ar  
    14    10    11 1   
    15    10    12 ar  
    16    11    29 1   
    17    11    30 1   
    18    11    31 1   
    19    12    13 1   
    20    12    14 ar  
    21    13    32 1   
    22    14    15 1   
    23    15    16 2   
    24    15    33 1   
    25    16    17 1   
    26    17    18 1   
    27    17    21 1   
    28    17    34 1   
    29    18    19 1   
    30    18    20 1   
    31    21    22 1   
    32    21    35 1   
    33    21    36 1   
    34    22    23 1   
    35    23    24 2   
    36    23    25 1   
    37    25    37 1   
    38    25    38 1   
    39    25    39 1   
@<TRIPOS>SUBSTRUCTURE
     1 E1R         1 TEMP              0 ****  ****    0 ROOT
