@<TRIPOS>MOLECULE
E4P
   19    18     1     0     0
SMALL
abcg2


@<TRIPOS>ATOM
      1 C1          21.6500    77.6910    28.5930 c          1 E4P       0.586900
      2 O1          20.6510    78.3130    28.3420 o          1 E4P      -0.553100
      3 C2          21.7420    76.6400    29.6700 c3         1 E4P       0.047300
      4 O2          20.4790    76.4720    30.2450 oh         1 E4P      -0.653000
      5 C3          22.8040    77.0520    30.7030 c3         1 E4P       0.123300
      6 O3          24.0240    77.2000    30.0160 oh         1 E4P      -0.727000
      7 C4          22.9480    76.0230    31.8220 c3         1 E4P       0.224600
      8 O4          24.0940    76.3570    32.5390 os         1 E4P      -0.592400
      9 P           24.2200    75.8500    34.1900 p5         1 E4P       1.273900
     10 O1P         23.0820    76.5830    34.8920 o          1 E4P      -0.919500
     11 O2P         25.6210    76.3450    34.5140 o          1 E4P      -0.919500
     12 O3P         24.0500    74.3370    34.1280 o          1 E4P      -0.919500
     13 H1          22.5860    77.8570    28.0360 h4         1 E4P      -0.009800
     14 H2          22.1050    75.7240    29.1750 h1         1 E4P       0.039700
     15 HO2         20.4580    75.6240    30.6980 ho         1 E4P       0.453000
     16 H3          22.4930    78.0080    31.1560 h1         1 E4P       0.044700
     17 HO3         24.7110    77.1420    30.6930 ho         1 E4P       0.502000
     18 H41         22.0450    76.0380    32.4440 h1         1 E4P      -0.001800
     19 H42         23.0220    75.0150    31.3790 h1         1 E4P      -0.001800
@<TRIPOS>BOND
     1     1     2 2   
     2     1     3 1   
     3     1    13 1   
     4     3     4 1   
     5     3     5 1   
     6     3    14 1   
     7     4    15 1   
     8     5     6 1   
     9     5     7 1   
    10     5    16 1   
    11     6    17 1   
    12     7     8 1   
    13     7    18 1   
    14     7    19 1   
    15     8     9 1   
    16     9    10 1   
    17     9    11 1   
    18     9    12 1   
@<TRIPOS>SUBSTRUCTURE
     1 E4P         1 TEMP              0 ****  ****    0 ROOT
