@<TRIPOS>MOLECULE
E81
   28    29     1     0     0
SMALL
abcg2


@<TRIPOS>ATOM
      1 CAB         14.0910    13.8000     4.5090 cc         1 E81      -0.366200
      2 CAC         14.6230    13.0480     3.5020 cd         1 E81      -0.051000
      3 CAD         15.6900    12.2610     3.9780 cd         1 E81      -0.089000
      4 CAE         15.9240    12.4520     5.3170 cc         1 E81      -0.333600
      5 CAI         16.9650    11.9410     6.2330 c          1 E81       0.652700
      6 CAL         17.1880     9.8680     5.0530 ca         1 E81       0.115100
      7 CAM         15.9830     9.2260     5.2820 ca         1 E81      -0.129000
      8 CAN         15.5740     8.2290     4.4110 ca         1 E81      -0.078000
      9 CAO         16.3620     7.8590     3.3240 ca         1 E81      -0.089300
     10 CAP         17.5730     8.5150     3.1270 ca         1 E81      -0.078000
     11 CAQ         17.9970     9.5170     3.9880 ca         1 E81      -0.129000
     12 CAR         15.9440     6.7440     2.4070 c3         1 E81       0.209900
     13 NAF         12.9920    14.7050     4.4060 no         1 E81       0.731200
     14 OAG         12.4540    14.8200     3.3320 o          1 E81      -0.389500
     15 OAH         12.6790    15.2970     5.4140 o          1 E81      -0.389500
     16 OAJ         17.2290    12.5290     7.2470 o          1 E81      -0.417000
     17 OAK         17.6480    10.8380     5.9240 os         1 E81      -0.338200
     18 OAS         14.5520     6.7940     2.2090 oh         1 E81      -0.657000
     19 SAA         14.8610    13.6030     6.0170 ss         1 E81       0.476000
     20 H1          14.2770    13.0520     2.4800 ha         1 E81       0.168000
     21 H2          16.2580    11.6010     3.3420 ha         1 E81       0.156000
     22 H3          15.3640     9.4950     6.1300 ha         1 E81       0.132500
     23 H4          14.6300     7.7330     4.5950 ha         1 E81       0.126500
     24 H5          18.1990     8.2470     2.2840 ha         1 E81       0.126500
     25 H6          18.9370    10.0270     3.8220 ha         1 E81       0.132500
     26 H7          16.2470     5.7900     2.8580 h1         1 E81       0.030700
     27 H8          16.4960     6.8290     1.4620 h1         1 E81       0.030700
     28 H9          14.2730     5.9600     1.8200 ho         1 E81       0.449000
@<TRIPOS>BOND
     1     1     2 2   
     2     1    13 1   
     3     1    19 1   
     4     2     3 1   
     5     2    20 1   
     6     3     4 2   
     7     3    21 1   
     8     4     5 1   
     9     4    19 1   
    10     5    16 2   
    11     5    17 1   
    12     6     7 ar  
    13     6    11 ar  
    14     6    17 1   
    15     7     8 ar  
    16     7    22 1   
    17     8     9 ar  
    18     8    23 1   
    19     9    10 ar  
    20     9    12 1   
    21    10    11 ar  
    22    10    24 1   
    23    11    25 1   
    24    12    18 1   
    25    12    26 1   
    26    12    27 1   
    27    13    14 1   
    28    13    15 1   
    29    18    28 1   
@<TRIPOS>SUBSTRUCTURE
     1 E81         1 TEMP              0 ****  ****    0 ROOT
