@<TRIPOS>MOLECULE
ECJ
   42    44     1     0     0
SMALL
abcg2


@<TRIPOS>ATOM
      1 C10          4.6500   -76.0140    -5.6900 c3         1 ECJ       0.266800
      2 C11          3.8660   -76.9370    -4.8280 c2         1 ECJ       0.117900
      3 C13          4.1860   -77.5040    -3.6450 ce         1 ECJ      -0.019100
      4 C15          3.0820   -78.3450    -3.2560 c          1 ECJ       0.587300
      5 C17          2.0460   -78.1560    -4.3710 c5         1 ECJ       0.137300
      6 C19          2.3540   -80.1470    -5.8680 cc         1 ECJ       0.567700
      7 C21          0.5020   -81.1410    -5.5920 ca         1 ECJ      -0.052600
      8 C22         -0.6270   -81.9770    -5.5740 ca         1 ECJ       0.378900
      9 C25         -1.6000   -80.4760    -4.1280 ca         1 ECJ       0.083900
     10 C28          0.4300   -79.9990    -4.8110 ca         1 ECJ       0.093500
     11 N18          1.6270   -79.3690    -4.9990 na         1 ECJ      -0.217300
     12 N20          1.7070   -81.2100    -6.2470 nd         1 ECJ      -0.661100
     13 N23         -0.6880   -83.1230    -6.2600 nv         1 ECJ      -1.108900
     14 N24         -1.6720   -81.6080    -4.8240 nb         1 ECJ      -0.367000
     15 N27         -0.5980   -79.6170    -4.0580 nb         1 ECJ      -0.155000
     16 O02          1.2550   -72.9080    -6.0220 o          1 ECJ      -0.965500
     17 O03          0.9920   -72.5880    -8.5580 o          1 ECJ      -0.965500
     18 O04          2.1810   -70.7960    -7.1530 o          1 ECJ      -0.965500
     19 O05          3.2840   -73.0740    -7.6440 os         1 ECJ      -0.735800
     20 O07          5.6610   -73.9100    -7.5460 o          1 ECJ      -0.911500
     21 O08          4.6530   -72.7660    -5.4580 o          1 ECJ      -0.911500
     22 O09          3.7860   -75.0550    -6.2340 os         1 ECJ      -0.582400
     23 O12          2.6590   -77.3140    -5.3210 os         1 ECJ      -0.272100
     24 O14          5.2900   -77.3500    -2.9040 os         1 ECJ      -0.464500
     25 O16          2.8940   -79.0060    -2.2590 o          1 ECJ      -0.587100
     26 O30          7.3190   -78.8170    -2.3940 o          1 ECJ      -0.888500
     27 O31          7.6100   -76.5320    -3.5760 o          1 ECJ      -0.888500
     28 O32          6.5640   -78.4270    -4.8480 os         1 ECJ      -0.721800
     29 O34          5.0030   -80.4310    -4.2700 o          1 ECJ      -0.946167
     30 O35          7.2970   -80.8300    -5.3620 o          1 ECJ      -0.946167
     31 O36          5.4140   -79.6960    -6.6950 o          1 ECJ      -0.946167
     32 P01          1.7720   -72.2550    -7.2950 p5         1 ECJ       1.380900
     33 P06          4.4570   -73.5920    -6.6990 p5         1 ECJ       1.492800
     34 P29          6.8550   -77.8180    -3.4090 p5         1 ECJ       1.482800
     35 P33          6.0160   -80.0160    -5.3270 p5         1 ECJ       1.354900
     36 H1           5.1330   -76.6150    -6.4720 h1         1 ECJ       0.070200
     37 H2           5.4550   -75.5870    -5.0820 h1         1 ECJ       0.070200
     38 H6           1.1580   -77.6640    -3.9620 h2         1 ECJ       0.080700
     39 H7           3.3540   -79.8710    -6.1910 h5         1 ECJ       0.193800
     40 H8          -2.4810   -80.2320    -3.5440 h5         1 ECJ      -0.010900
     41 H9          -1.5450   -83.6480    -6.2880 hn         1 ECJ       0.467500
     42 H10          0.0450   -83.3780    -6.8980 hn         1 ECJ       0.467500
@<TRIPOS>BOND
     1     1     2 1   
     2     1    22 1   
     3     1    36 1   
     4     1    37 1   
     5     2     3 2   
     6     2    23 1   
     7     3     4 1   
     8     3    24 1   
     9     4     5 1   
    10     4    25 2   
    11     5    11 1   
    12     5    23 1   
    13     5    38 1   
    14     6    11 1   
    15     6    12 2   
    16     6    39 1   
    17     7     8 ar  
    18     7    10 ar  
    19     7    12 1   
    20     8    13 1   
    21     8    14 ar  
    22     9    14 ar  
    23     9    15 ar  
    24     9    40 1   
    25    10    11 1   
    26    10    15 ar  
    27    13    41 1   
    28    13    42 1   
    29    16    32 1   
    30    17    32 1   
    31    18    32 1   
    32    19    32 1   
    33    19    33 1   
    34    20    33 1   
    35    21    33 1   
    36    22    33 1   
    37    24    34 1   
    38    26    34 1   
    39    27    34 1   
    40    28    34 1   
    41    28    35 1   
    42    29    35 1   
    43    30    35 1   
    44    31    35 1   
@<TRIPOS>SUBSTRUCTURE
     1 ECJ         1 TEMP              0 ****  ****    0 ROOT
