@<TRIPOS>MOLECULE
EFS
   12    11     1     0     0
SMALL
abcg2


@<TRIPOS>ATOM
      1 C12         55.9730   -24.2870     9.6460 c3         1 EFS      -0.093100
      2 C11         56.1610   -25.5810     8.8740 c3         1 EFS       0.250600
      3 O2          57.3700   -26.1810     9.2340 os         1 EFS      -0.591400
      4 P           57.6020   -27.8300     8.8190 p5         1 EFS       1.277900
      5 O4          59.0470   -28.0330     9.2580 o          1 EFS      -0.930500
      6 O1          56.5670   -28.5890     9.6460 o          1 EFS      -0.930500
      7 O3          57.3670   -27.8900     7.3110 o          1 EFS      -0.930500
      8 H121        55.0500   -23.7900     9.3430 hc         1 EFS      -0.007300
      9 H122        55.9150   -24.4700    10.7200 hc         1 EFS      -0.007300
     10 H123        56.7970   -23.5940     9.4660 hc         1 EFS      -0.007300
     11 H111        55.3030   -26.2380     9.0750 h1         1 EFS      -0.015800
     12 H112        56.1240   -25.3600     7.7970 h1         1 EFS      -0.015800
@<TRIPOS>BOND
     1     1     2 1   
     2     1     8 1   
     3     1     9 1   
     4     1    10 1   
     5     2     3 1   
     6     2    11 1   
     7     2    12 1   
     8     3     4 1   
     9     4     5 1   
    10     4     6 1   
    11     4     7 1   
@<TRIPOS>SUBSTRUCTURE
     1 EFS         1 TEMP              0 ****  ****    0 ROOT
