@<TRIPOS>MOLECULE
EJA
   22    21     1     0     0
SMALL
abcg2


@<TRIPOS>ATOM
      1 N            2.8530     1.6290    -0.8030 n8         1 EJA      -0.985200
      2 CA           2.6010     0.5070     0.0830 c3         1 EJA       0.015500
      3 CB           1.2080    -0.0580    -0.1770 c3         1 EJA       0.096600
      4 SG           0.0040     1.3070    -0.1020 ss         1 EJA      -0.378200
      5 CD          -1.5490     0.4810     0.0700 c2         1 EJA       0.449200
      6 CE          -1.6370    -1.0140     0.0870 c3         1 EJA      -0.261700
      7 CZ          -3.0960    -1.5440     0.0760 c          1 EJA       0.738000
      8 OT1         -3.6270    -1.6550    -1.0440 o          1 EJA      -0.739000
      9 OT2         -3.5940    -1.8150     1.1840 o          1 EJA      -0.739000
     10 NE          -2.6160     1.1630     0.1870 n2         1 EJA      -0.338700
     11 OZ          -2.3840     2.5180     0.1710 oh         1 EJA      -0.538000
     12 C            3.6240    -0.6660     0.0200 c          1 EJA       0.697000
     13 O            4.5100    -0.6030    -0.8520 o          1 EJA      -0.737000
     14 H            3.7240     2.0680    -0.5350 hn         1 EJA       0.376000
     15 H2           3.0220     1.2710    -1.7360 hn         1 EJA       0.376000
     16 HA           2.6090     0.8930     1.1080 h1         1 EJA       0.046700
     17 HB2          1.1590    -0.5300    -1.1610 h1         1 EJA       0.066700
     18 HB3          0.9750    -0.8060     0.5760 h1         1 EJA       0.066700
     19 HE2         -1.0940    -1.4020    -0.7780 hc         1 EJA       0.045700
     20 HE1         -1.1090    -1.3740     0.9750 hc         1 EJA       0.045700
     21 HOZ         -3.2610     2.9070     0.2550 ho         1 EJA       0.432000
     22 OXT          3.4510    -1.5730     0.8580 o          1 EJA      -0.737000
@<TRIPOS>BOND
     1     1     2 1   
     2     1    14 1   
     3     1    15 1   
     4     2     3 1   
     5     2    12 1   
     6     2    16 1   
     7     3     4 1   
     8     3    17 1   
     9     3    18 1   
    10     4     5 1   
    11     5     6 1   
    12     5    10 2   
    13     6     7 1   
    14     6    19 1   
    15     6    20 1   
    16     7     8 1   
    17     7     9 1   
    18    10    11 1   
    19    11    21 1   
    20    12    13 1   
    21    12    22 1   
@<TRIPOS>SUBSTRUCTURE
     1 EJA         1 TEMP              0 ****  ****    0 ROOT
