@<TRIPOS>MOLECULE
EN0
   50    51     1     0     0
SMALL
abcg2


@<TRIPOS>ATOM
      1 C01        -30.6180   -30.3260   267.9580 c3         1 EN0      -0.122400
      2 C02        -31.5780   -29.8870   266.8970 ca         1 EN0       0.166300
      3 N03        -32.7670   -29.4520   267.3090 nb         1 EN0      -0.279000
      4 C04        -33.5990   -29.0680   266.3470 ca         1 EN0       0.135900
      5 C05        -33.3100   -29.1080   265.0010 ca         1 EN0      -0.272300
      6 C06        -34.3290   -28.6690   264.0000 c3         1 EN0       0.123900
      7 N07        -33.9140   -27.5200   263.1740 na         1 EN0       0.027300
      8 C08        -33.8630   -27.5800   261.8520 cc         1 EN0      -0.238900
      9 C09        -34.0640   -28.8310   261.0770 ce         1 EN0       0.435900
     10 O10        -33.1090   -29.7070   261.1760 o          1 EN0      -0.869300
     11 C11        -35.2000   -28.9670   260.3630 c2         1 EN0      -0.215100
     12 F12        -36.1320   -27.9620   260.4310 f          1 EN0      -0.210500
     13 P13        -35.6910   -30.4350   259.4010 p5         1 EN0       1.307000
     14 O14        -36.5690   -31.3120   260.2540 o          1 EN0      -0.865500
     15 O15        -34.2150   -31.1170   259.2180 oh         1 EN0      -0.840400
     16 O16        -36.1970   -29.9970   258.0540 o          1 EN0      -0.865500
     17 S17        -33.5000   -26.0920   261.1520 ss         1 EN0       0.729000
     18 C18        -33.3710   -25.3560   262.7150 cc         1 EN0      -0.195300
     19 C19        -33.1190   -23.8970   262.9170 c3         1 EN0      -0.076100
     20 C20        -34.4490   -23.1360   262.8210 c3         1 EN0       0.274600
     21 O21        -34.3880   -21.7530   263.0730 os         1 EN0      -0.625400
     22 P22        -33.3610   -20.6320   262.3950 p5         1 EN0       1.498800
     23 O23        -34.2170   -19.4440   262.0570 o          1 EN0      -0.896000
     24 O24        -32.7260   -21.3270   261.0960 os         1 EN0      -0.752800
     25 P25        -33.2910   -22.0150   259.6120 p5         1 EN0       1.372900
     26 O26        -32.8250   -23.4700   259.7520 o          1 EN0      -0.945167
     27 O27        -32.5120   -21.2180   258.5800 o          1 EN0      -0.945167
     28 O28        -34.8000   -21.8200   259.5940 o          1 EN0      -0.945167
     29 O29        -32.2350   -20.4370   263.3730 o          1 EN0      -0.896000
     30 C30        -33.6500   -26.2620   263.6880 cd         1 EN0      -0.198300
     31 C31        -33.6960   -25.9890   265.1500 c3         1 EN0      -0.014800
     32 C32        -32.0340   -29.6230   264.6660 ca         1 EN0       0.413900
     33 N33        -31.6070   -29.7530   263.4100 nv         1 EN0      -1.050900
     34 N34        -31.1850   -29.9840   265.6400 nb         1 EN0      -0.316000
     35 H1         -29.6340   -30.5300   267.5430 hc         1 EN0       0.036700
     36 H2         -30.5280   -29.5650   268.7340 hc         1 EN0       0.036700
     37 H3         -30.9840   -31.2330   268.4420 hc         1 EN0       0.036700
     38 H4         -34.5660   -28.6880   266.6670 h4         1 EN0       0.004100
     39 H5         -35.2480   -28.3780   264.5110 h1         1 EN0       0.084700
     40 H6         -34.5920   -29.4740   263.3180 h1         1 EN0       0.084700
     41 H7         -33.6220   -30.7850   260.0000 ho         1 EN0       0.483000
     42 H10        -32.6540   -23.7610   263.8950 hc         1 EN0       0.094200
     43 H11        -32.4330   -23.5270   262.1620 hc         1 EN0       0.094200
     44 H12        -34.8950   -23.3470   261.8480 h1         1 EN0       0.010200
     45 H13        -35.1270   -23.5380   263.5800 h1         1 EN0       0.010200
     46 H17        -34.6020   -26.3840   265.6070 hc         1 EN0       0.041367
     47 H18        -32.8410   -26.4200   265.6710 hc         1 EN0       0.041367
     48 H19        -33.6860   -24.9170   265.3250 hc         1 EN0       0.041367
     49 H20        -30.7080   -30.1880   263.2800 hn         1 EN0       0.526000
     50 H21        -32.2260   -29.7100   262.5890 hn         1 EN0       0.526000
@<TRIPOS>BOND
     1     1     2 1   
     2     1    35 1   
     3     1    36 1   
     4     1    37 1   
     5     2     3 ar  
     6     2    34 ar  
     7     3     4 ar  
     8     4     5 ar  
     9     4    38 1   
    10     5     6 1   
    11     5    32 ar  
    12     6     7 1   
    13     6    39 1   
    14     6    40 1   
    15     7     8 2   
    16     7    30 1   
    17     8     9 1   
    18     8    17 1   
    19     9    10 1   
    20     9    11 2   
    21    11    12 1   
    22    11    13 1   
    23    13    14 1   
    24    13    15 1   
    25    13    16 1   
    26    15    41 1   
    27    17    18 1   
    28    18    19 1   
    29    18    30 2   
    30    19    20 1   
    31    19    42 1   
    32    19    43 1   
    33    20    21 1   
    34    20    44 1   
    35    20    45 1   
    36    21    22 1   
    37    22    23 1   
    38    22    24 1   
    39    22    29 1   
    40    24    25 1   
    41    25    26 1   
    42    25    27 1   
    43    25    28 1   
    44    30    31 1   
    45    31    46 1   
    46    31    47 1   
    47    31    48 1   
    48    32    33 1   
    49    32    34 ar  
    50    33    49 1   
    51    33    50 1   
@<TRIPOS>SUBSTRUCTURE
     1 EN0         1 TEMP              0 ****  ****    0 ROOT
