@<TRIPOS>MOLECULE
EQ0
   37    39     1     0     0
SMALL
abcg2


@<TRIPOS>ATOM
      1 C1          -7.5430    -1.3790     4.6900 ca         1 EQ0      -0.309000
      2 C2          -8.3480    -0.6640     3.7730 ca         1 EQ0       0.625900
      3 C4          -9.9560    -0.4450     5.2990 ca         1 EQ0       0.431500
      4 C5          -9.2670    -1.1260     6.2970 ca         1 EQ0      -0.104600
      5 C6          -7.9970    -1.6200     5.9740 ca         1 EQ0       0.253100
      6 C7         -12.1780     0.7020     5.2600 c5         1 EQ0       0.275300
      7 C9         -13.6020     0.1980     5.5060 c5         1 EQ0       0.068300
      8 C3         -14.4020     1.4650     5.2160 c5         1 EQ0       0.144300
      9 C10        -13.4800     2.5580     5.7590 c5         1 EQ0       0.114300
     10 C11        -13.8680     3.0290     7.1550 c3         1 EQ0       0.263600
     11 C8         -11.0980    -0.5350     7.1730 cc         1 EQ0       0.444700
     12 N2          -7.9010    -0.4680     2.4980 nv         1 EQ0      -1.061900
     13 N3          -9.5590    -0.1920     4.0640 nb         1 EQ0      -0.736000
     14 N7         -10.0010    -1.1670     7.4580 nd         1 EQ0      -0.607100
     15 N9         -11.1470    -0.0840     5.8790 na         1 EQ0      -0.274300
     16 O2         -13.9930    -0.8560     4.6810 oh         1 EQ0      -0.723000
     17 O3         -14.5720     1.6650     3.8340 oh         1 EQ0      -0.699000
     18 O4         -12.1580     2.0000     5.7810 os         1 EQ0      -0.399000
     19 O5         -13.0040     3.9720     7.7010 os         1 EQ0      -0.558400
     20 O6          -7.2360    -2.2930     6.8390 oh         1 EQ0      -0.541100
     21 OP1        -14.5090     5.9080     6.9230 o          1 EQ0      -0.916500
     22 OP2        -12.3470     6.3180     8.2740 o          1 EQ0      -0.916500
     23 P          -13.0270     5.5980     7.1170 p5         1 EQ0       1.256900
     24 H1          -6.5670    -1.7340     4.3850 ha         1 EQ0       0.116000
     25 H6         -11.9650     0.6880     4.1840 h2         1 EQ0       0.091700
     26 H2         -13.7290    -0.0460     6.5690 h1         1 EQ0       0.043700
     27 H3         -15.3680     1.4550     5.7380 h1         1 EQ0       0.050700
     28 H4         -13.4850     3.4150     5.0800 h1         1 EQ0       0.145700
     29 H5'        -14.9000     3.4020     7.0920 h1         1 EQ0      -0.017800
     30 H5         -13.8920     2.1550     7.8210 h1         1 EQ0      -0.017800
     31 H8         -11.9090    -0.3660     7.8660 h5         1 EQ0       0.075800
     32 H22         -8.3580     0.2590     1.9740 hn         1 EQ0       0.464500
     33 H21         -6.9090    -0.5260     2.3390 hn         1 EQ0       0.464500
     34 HO2        -13.5920    -1.6710     4.9980 ho         1 EQ0       0.498000
     35 H7         -15.0630     0.9180     3.4770 ho         1 EQ0       0.487000
     36 H9          -7.6870    -2.3750     7.6890 ho         1 EQ0       0.488000
     37 OP3        -12.2180     5.5730     5.8200 o          1 EQ0      -0.916500
@<TRIPOS>BOND
     1     1     2 ar  
     2     1     5 ar  
     3     1    24 1   
     4     2    12 1   
     5     2    13 ar  
     6     3     4 ar  
     7     3    13 ar  
     8     3    15 1   
     9     4     5 ar  
    10     4    14 1   
    11     5    20 1   
    12     6     7 1   
    13     6    15 1   
    14     6    18 1   
    15     6    25 1   
    16     7     8 1   
    17     7    16 1   
    18     7    26 1   
    19     8     9 1   
    20     8    17 1   
    21     8    27 1   
    22     9    10 1   
    23     9    18 1   
    24     9    28 1   
    25    10    19 1   
    26    10    29 1   
    27    10    30 1   
    28    11    14 2   
    29    11    15 1   
    30    11    31 1   
    31    12    32 1   
    32    12    33 1   
    33    16    34 1   
    34    17    35 1   
    35    19    23 1   
    36    20    36 1   
    37    21    23 1   
    38    22    23 1   
    39    23    37 1   
@<TRIPOS>SUBSTRUCTURE
     1 EQ0         1 TEMP              0 ****  ****    0 ROOT
