@<TRIPOS>MOLECULE
F2A
   44    46     1     0     0
SMALL
abcg2


@<TRIPOS>ATOM
      1 PA          -3.9140    -3.7520    34.3010 p5         1 F2A       1.431400
      2 O1A         -5.2500    -3.3690    34.8860 o          1 F2A      -0.874000
      3 O2A         -2.6900    -2.9380    34.6350 o          1 F2A      -0.874000
      4 C3A         -3.5350    -5.5120    34.6180 c3         1 F2A      -0.816400
      5 O5          -4.0270    -3.6800    32.6360 os         1 F2A      -0.612400
      6 PB          -4.4710    -6.8370    33.7420 p5         1 F2A       1.544400
      7 O1B         -3.8790    -7.0130    32.3590 o          1 F2A      -0.926500
      8 O2B         -5.9590    -6.5840    33.8500 o          1 F2A      -0.926500
      9 O3B         -4.0510    -8.1680    34.5690 os         1 F2A      -0.748800
     10 PG          -4.1560    -8.6230    36.2320 p5         1 F2A       1.373900
     11 O1G         -2.6910    -8.8130    36.6080 o          1 F2A      -0.967500
     12 O2G         -4.9690    -9.9110    36.1690 o          1 F2A      -0.967500
     13 O3G         -4.8530    -7.4650    36.9450 o          1 F2A      -0.967500
     14 C5          -5.2570    -3.5330    31.9790 c3         1 F2A       0.249600
     15 C4          -5.0270    -3.2610    30.5110 c5         1 F2A       0.125300
     16 O4          -4.2940    -2.0500    30.3400 os         1 F2A      -0.446000
     17 C1          -3.4280    -2.1330    29.2480 c5         1 F2A       0.324300
     18 N9          -2.0540    -1.9680    29.7180 na         1 F2A      -0.286300
     19 C9          -1.0200    -1.5240    28.9500 ca         1 F2A       0.074500
     20 N3          -1.0480    -1.1400    27.6740 nb         1 F2A      -0.213000
     21 C2           0.1450    -0.7610    27.2530 ca         1 F2A       0.122900
     22 N1           1.2910    -0.7340    27.9280 nb         1 F2A      -0.343000
     23 C6           1.3040    -1.1290    29.2060 ca         1 F2A       0.421900
     24 N6           2.4590    -1.1240    29.8770 nv         1 F2A      -1.082900
     25 C7           0.0900    -1.5510    29.7800 ca         1 F2A      -0.066600
     26 N7          -0.2500    -1.9980    31.0290 nc         1 F2A      -0.580100
     27 C8          -1.5300    -2.2370    30.9520 cd         1 F2A       0.508700
     28 C10         -3.6710    -3.4860    28.5890 c5         1 F2A      -0.170400
     29 C3          -4.2410    -4.3210    29.7320 c5         1 F2A       0.142300
     30 O3          -5.0050    -5.4300    29.3520 oh         1 F2A      -0.629000
     31 H3A         -2.4700    -5.6710    34.4320 hc         1 F2A       0.085200
     32 H3AA        -3.6900    -5.6620    35.6900 hc         1 F2A       0.085200
     33 H5          -5.8730    -4.4360    32.0570 h1         1 F2A       0.051700
     34 H5'A        -5.8460    -2.7120    32.4030 h1         1 F2A       0.051700
     35 H4          -6.0190    -3.1500    30.0450 h1         1 F2A      -0.003300
     36 H1          -3.6060    -1.3080    28.5540 h2         1 F2A       0.049700
     37 H2           0.2040    -0.4270    26.2220 h5         1 F2A       0.006100
     38 HN6          3.2830    -0.7330    29.4530 hn         1 F2A       0.490000
     39 HN6A         2.4850    -1.3270    30.8610 hn         1 F2A       0.490000
     40 H8          -2.1410    -2.5990    31.7640 h5         1 F2A       0.170800
     41 H6          -4.4260    -3.3690    27.8060 hc         1 F2A       0.041200
     42 H2'A        -2.7750    -3.9020    28.1310 hc         1 F2A       0.041200
     43 H3          -3.4340    -4.7170    30.3540 h1         1 F2A       0.174700
     44 HO3         -5.7220    -5.1330    28.7810 ho         1 F2A       0.444000
@<TRIPOS>BOND
     1     1     2 1   
     2     1     3 1   
     3     1     4 1   
     4     1     5 1   
     5     4     6 1   
     6     4    31 1   
     7     4    32 1   
     8     5    14 1   
     9     6     7 1   
    10     6     8 1   
    11     6     9 1   
    12     9    10 1   
    13    10    11 1   
    14    10    12 1   
    15    10    13 1   
    16    14    15 1   
    17    14    33 1   
    18    14    34 1   
    19    15    16 1   
    20    15    29 1   
    21    15    35 1   
    22    16    17 1   
    23    17    18 1   
    24    17    28 1   
    25    17    36 1   
    26    18    19 1   
    27    18    27 1   
    28    19    20 ar  
    29    19    25 ar  
    30    20    21 ar  
    31    21    22 ar  
    32    21    37 1   
    33    22    23 ar  
    34    23    24 1   
    35    23    25 ar  
    36    24    38 1   
    37    24    39 1   
    38    25    26 1   
    39    26    27 2   
    40    27    40 1   
    41    28    29 1   
    42    28    41 1   
    43    28    42 1   
    44    29    30 1   
    45    29    43 1   
    46    30    44 1   
@<TRIPOS>SUBSTRUCTURE
     1 F2A         1 TEMP              0 ****  ****    0 ROOT
