@<TRIPOS>MOLECULE
FAI
   37    38     1     0     0
SMALL
abcg2


@<TRIPOS>ATOM
      1 OP2         21.0740     0.7920    26.9050 o          1 FAI      -0.915833
      2 P           21.9530     2.0230    27.0710 p5         1 FAI       1.258900
      3 OP1         23.2550     2.0140    26.2750 o          1 FAI      -0.915833
      4 OP3         22.1050     2.5230    28.5080 o          1 FAI      -0.915833
      5 O3          20.9760     3.2220    26.2920 os         1 FAI      -0.592400
      6 C4          21.5470     4.4640    26.0300 c3         1 FAI       0.242600
      7 C           20.8040     5.6210    26.6700 c5         1 FAI       0.141300
      8 O           19.4880     5.7600    26.1000 os         1 FAI      -0.454000
      9 C3          20.6000     5.5050    28.1780 c5         1 FAI       0.104300
     10 O1          20.6520     6.8000    28.7370 oh         1 FAI      -0.750000
     11 C2          19.1840     4.9400    28.2590 c5         1 FAI       0.083300
     12 O2          18.4900     5.2230    29.4420 oh         1 FAI      -0.756000
     13 C1          18.5180     5.6590    27.0910 c5         1 FAI       0.312300
     14 N           17.3690     4.9550    26.5670 na         1 FAI      -0.156500
     15 C5          17.3860     3.7700    25.9120 cc         1 FAI       0.460400
     16 N1          16.1880     3.3800    25.5830 nd         1 FAI      -0.651000
     17 C3A         15.3360     4.3340    26.0590 cd         1 FAI       0.185500
     18 C6          13.8760     4.2040    25.8430 c          1 FAI       0.552600
     19 O5          13.4350     3.4000    25.0350 o          1 FAI      -0.600100
     20 N2          13.0890     5.0120    26.5750 nt         1 FAI      -0.622000
     21 C7A         16.0580     5.3270    26.6740 cc         1 FAI      -0.084400
     22 N3          15.6670     6.5200    27.2720 ns         1 FAI      -0.420100
     23 C8          15.3870     7.6410    26.5520 c          1 FAI       0.603900
     24 O6          15.4150     7.7070    25.3460 o          1 FAI      -0.562100
     25 H41         22.5860     4.5370    26.3740 h1         1 FAI       0.011200
     26 H42         21.5820     4.6500    24.9460 h1         1 FAI       0.011200
     27 H           21.3670     6.5340    26.4450 h1         1 FAI       0.042700
     28 H3          21.3320     4.8260    28.6290 h1         1 FAI       0.152700
     29 HO3         20.2370     6.7590    29.6060 ho         1 FAI       0.494000
     30 H2          19.2250     3.8650    28.0540 h1         1 FAI       0.132700
     31 HO2         18.6650     4.5240    30.0800 ho         1 FAI       0.521000
     32 H1          18.1580     6.6430    27.4160 h2         1 FAI       0.046700
     33 H5          18.3060     3.2410    25.7090 h5         1 FAI       0.128100
     34 HN21        12.0890     4.9510    26.4770 hn         1 FAI       0.298500
     35 HN22        13.4440     5.6020    27.3070 hn         1 FAI       0.298500
     36 HN3         15.6710     6.5920    28.2810 hn         1 FAI       0.322500
     37 H8          15.1240     8.4840    27.2050 h5         1 FAI      -0.008800
@<TRIPOS>BOND
     1     1     2 1   
     2     2     3 1   
     3     2     4 1   
     4     2     5 1   
     5     5     6 1   
     6     6     7 1   
     7     6    25 1   
     8     6    26 1   
     9     7     8 1   
    10     7     9 1   
    11     7    27 1   
    12     8    13 1   
    13     9    10 1   
    14     9    11 1   
    15     9    28 1   
    16    10    29 1   
    17    11    12 1   
    18    11    13 1   
    19    11    30 1   
    20    12    31 1   
    21    13    14 1   
    22    13    32 1   
    23    14    15 1   
    24    14    21 1   
    25    15    16 2   
    26    15    33 1   
    27    16    17 1   
    28    17    18 1   
    29    17    21 2   
    30    18    19 2   
    31    18    20 1   
    32    20    34 1   
    33    20    35 1   
    34    21    22 1   
    35    22    23 1   
    36    22    36 1   
    37    23    24 2   
    38    23    37 1   
@<TRIPOS>SUBSTRUCTURE
     1 FAI         1 TEMP              0 ****  ****    0 ROOT
