@<TRIPOS>MOLECULE
FAZ
   48    51     1     0     0
SMALL
abcg2


@<TRIPOS>ATOM
      1 C1          17.4130    63.0620    22.3220 ca         1 FAZ       0.009000
      2 N1          25.7130    61.9030    20.8400 n          1 FAZ      -0.237400
      3 O1          19.1830    60.6500    24.3640 os         1 FAZ      -0.356100
      4 S1          22.5510    62.0980    21.5520 ss         1 FAZ       0.243000
      5 C2          18.3630    63.3400    21.3360 ca         1 FAZ      -0.148000
      6 N2          16.1400    63.6240    22.3800 ns         1 FAZ      -0.148000
      7 O2          25.9910    60.3730    22.4620 o          1 FAZ      -0.586100
      8 C3          19.5950    62.7180    21.3910 ca         1 FAZ      -0.065000
      9 O3          16.1740    65.1370    20.6790 o          1 FAZ      -0.576100
     10 C4          19.9620    61.8150    22.3950 ca         1 FAZ      -0.086000
     11 C5          18.9770    61.5200    23.3520 ca         1 FAZ       0.171100
     12 C6          17.7360    62.1330    23.3090 ca         1 FAZ      -0.200000
     13 C7          21.3230    61.2820    22.4600 cc         1 FAZ      -0.119000
     14 C8          21.8580    60.2180    23.1540 cd         1 FAZ      -0.113300
     15 C9          21.1440    59.2630    24.0590 c3         1 FAZ      -0.039100
     16 C10         19.6420    59.3510    23.9970 c3         1 FAZ       0.168600
     17 C11         23.7820    61.0200    22.0900 cc         1 FAZ      -0.287600
     18 C12         23.2490    60.0880    22.9340 cd         1 FAZ      -0.065000
     19 C13         25.2350    61.0690    21.8020 c          1 FAZ       0.656700
     20 C14         24.8980    62.5160    19.8620 ca         1 FAZ      -0.058000
     21 C15         24.6940    63.8900    19.8900 ca         1 FAZ      -0.094000
     22 C16         23.9130    64.5070    18.9260 ca         1 FAZ      -0.106000
     23 C17         23.3300    63.7480    17.9210 ca         1 FAZ      -0.097000
     24 C18         23.5360    62.3770    17.8690 ca         1 FAZ      -0.100000
     25 C19         24.3260    61.7720    18.8310 ca         1 FAZ       0.112000
     26 C20         15.5950    64.6070    21.6080 c          1 FAZ       0.610100
     27 C21         14.2060    65.0190    22.0230 c3         1 FAZ      -0.183100
     28 C22         27.1520    61.9430    20.6140 c3         1 FAZ       0.097300
     29 H1          18.1550    64.0260    20.5340 ha         1 FAZ       0.151000
     30 H2          15.5580    63.2750    23.1270 hn         1 FAZ       0.152000
     31 H3          20.2990    62.9540    20.6020 ha         1 FAZ       0.117000
     32 H4          17.0120    61.8760    24.0740 ha         1 FAZ       0.123000
     33 H5          21.4370    58.2390    23.8080 hc         1 FAZ       0.062700
     34 H6          21.4770    59.4230    25.0890 hc         1 FAZ       0.062700
     35 H7          19.1990    58.6530    24.7080 h1         1 FAZ       0.054200
     36 H8          19.2730    59.0870    23.0010 h1         1 FAZ       0.054200
     37 H9          23.8430    59.3110    23.3970 ha         1 FAZ       0.150000
     38 H10         25.1450    64.4670    20.6870 ha         1 FAZ       0.132000
     39 H11         23.7540    65.5760    18.9640 ha         1 FAZ       0.124000
     40 H12         22.7140    64.2210    17.1680 ha         1 FAZ       0.122000
     41 H13         23.0880    61.7850    17.0820 ha         1 FAZ       0.134000
     42 H14         13.6050    65.2140    21.1370 hc         1 FAZ       0.065033
     43 H15         13.6940    64.2810    22.6390 hc         1 FAZ       0.065033
     44 H16         14.2650    65.9490    22.5900 hc         1 FAZ       0.065033
     45 H17         27.3840    62.8140    20.0080 h1         1 FAZ       0.047033
     46 H18         27.6870    62.0260    21.5560 h1         1 FAZ       0.047033
     47 H19         27.5010    61.0510    20.0890 h1         1 FAZ       0.047033
     48 CL1         24.5780    60.0650    18.7740 cl         1 FAZ      -0.178000
@<TRIPOS>BOND
     1     1     5 ar  
     2     1     6 1   
     3     1    12 ar  
     4     2    19 1   
     5     2    20 1   
     6     2    28 1   
     7     3    11 1   
     8     3    16 1   
     9     4    13 1   
    10     4    17 1   
    11     5     8 ar  
    12     5    29 1   
    13     6    26 1   
    14     6    30 1   
    15     7    19 2   
    16     8    10 ar  
    17     8    31 1   
    18     9    26 2   
    19    10    11 ar  
    20    10    13 1   
    21    11    12 ar  
    22    12    32 1   
    23    13    14 2   
    24    14    15 1   
    25    14    18 1   
    26    15    16 1   
    27    15    33 1   
    28    15    34 1   
    29    16    35 1   
    30    16    36 1   
    31    17    18 2   
    32    17    19 1   
    33    18    37 1   
    34    20    21 ar  
    35    20    25 ar  
    36    21    22 ar  
    37    21    38 1   
    38    22    23 ar  
    39    22    39 1   
    40    23    24 ar  
    41    23    40 1   
    42    24    25 ar  
    43    24    41 1   
    44    25    48 1   
    45    26    27 1   
    46    27    42 1   
    47    27    43 1   
    48    27    44 1   
    49    28    45 1   
    50    28    46 1   
    51    28    47 1   
@<TRIPOS>SUBSTRUCTURE
     1 FAZ         1 TEMP              0 ****  ****    0 ROOT
