@<TRIPOS>MOLECULE
FEJ
   43    43     1     0     0
SMALL
abcg2


@<TRIPOS>ATOM
      1 OAD          2.8050   -35.3270   -11.9690 o          1 FEJ      -0.931833
      2 PAP          2.0230   -34.0440   -11.7390 p5         1 FEJ       1.277900
      3 OAE          1.7540   -33.7150   -10.2750 o          1 FEJ      -0.931833
      4 OAQ          2.5160   -32.8490   -12.5470 o          1 FEJ      -0.931833
      5 OAC          0.5220   -34.4380   -12.3950 os         1 FEJ      -0.569400
      6 CAB         -0.5030   -33.4530   -12.3310 c3         1 FEJ       0.267900
      7 CAM         -1.2800   -33.4300   -13.6200 ca         1 FEJ      -0.014300
      8 CAO         -1.1290   -32.3660   -14.4900 ca         1 FEJ       0.265900
      9 NAR         -1.7570   -32.2690   -15.6700 nb         1 FEJ      -0.681000
     10 CAS         -2.5860   -33.2360   -16.0500 ca         1 FEJ       0.230300
     11 CAA         -3.2790   -33.1210   -17.3740 c3         1 FEJ      -0.104400
     12 CAT         -2.8180   -34.3580   -15.2310 ca         1 FEJ       0.143100
     13 OAU         -3.6740   -35.2990   -15.6610 oh         1 FEJ      -0.604100
     14 CAN         -2.1520   -34.4670   -13.9970 ca         1 FEJ      -0.211900
     15 CAL         -2.3700   -35.6360   -13.1490 ce         1 FEJ       0.497800
     16 N           -3.1910   -36.5500   -13.4910 n2         1 FEJ      -0.634900
     17 CA          -3.3910   -37.6980   -12.6310 c3         1 FEJ       0.005500
     18 C           -2.9430   -39.0230   -13.3280 c          1 FEJ       0.743000
     19 O           -2.7090   -38.9980   -14.5570 o          1 FEJ      -0.725500
     20 OXT         -2.8410   -40.0110   -12.5620 o          1 FEJ      -0.725500
     21 CB          -4.8720   -37.7300   -12.2070 c3         1 FEJ       0.201300
     22 OG          -5.6260   -38.1260   -13.3630 oh         1 FEJ      -0.629000
     23 CG          -5.1910   -38.6100   -10.9880 c3         1 FEJ      -0.095700
     24 CD2         -6.6930   -38.5760   -10.6890 c3         1 FEJ      -0.080600
     25 CD1         -4.4090   -38.1650    -9.7490 c3         1 FEJ      -0.080600
     26 H3          -0.0720   -32.4650   -12.1710 h1         1 FEJ       0.007700
     27 H4          -1.1620   -33.6650   -11.4840 h1         1 FEJ       0.007700
     28 H5          -0.4670   -31.5490   -14.2290 h4         1 FEJ       0.025100
     29 H6          -2.9640   -32.2100   -17.8760 hc         1 FEJ       0.020700
     30 H7          -3.0490   -33.9770   -18.0110 hc         1 FEJ       0.020700
     31 H8          -4.3630   -33.1040   -17.2490 hc         1 FEJ       0.020700
     32 H9          -3.6980   -36.0070   -14.9380 ho         1 FEJ       0.548000
     33 H10         -1.8020   -35.7040   -12.2210 h4         1 FEJ       0.021800
     34 H11         -2.7830   -37.5950   -11.7310 h1         1 FEJ       0.045700
     35 H13         -5.1420   -36.7000   -11.9480 h1         1 FEJ      -0.005300
     36 H14         -6.5460   -37.8850   -13.2240 ho         1 FEJ       0.390000
     37 H15         -4.9020   -39.6310   -11.2360 hc         1 FEJ       0.100700
     38 H16         -6.9170   -39.1880    -9.8150 hc         1 FEJ       0.019367
     39 H17         -7.0240   -37.5560   -10.4760 hc         1 FEJ       0.019367
     40 H18         -7.2880   -38.9620   -11.5160 hc         1 FEJ       0.019367
     41 H19         -4.7390   -38.7290    -8.8760 hc         1 FEJ       0.019367
     42 H20         -3.3370   -38.3220    -9.8560 hc         1 FEJ       0.019367
     43 H21         -4.5770   -37.1060    -9.5420 hc         1 FEJ       0.019367
@<TRIPOS>BOND
     1     1     2 1   
     2     2     3 1   
     3     2     4 1   
     4     2     5 1   
     5     5     6 1   
     6     6     7 1   
     7     6    26 1   
     8     6    27 1   
     9     7     8 ar  
    10     7    14 ar  
    11     8     9 ar  
    12     8    28 1   
    13     9    10 ar  
    14    10    11 1   
    15    10    12 ar  
    16    11    29 1   
    17    11    30 1   
    18    11    31 1   
    19    12    13 1   
    20    12    14 ar  
    21    13    32 1   
    22    14    15 1   
    23    15    16 2   
    24    15    33 1   
    25    16    17 1   
    26    17    18 1   
    27    17    21 1   
    28    17    34 1   
    29    18    19 1   
    30    18    20 1   
    31    21    22 1   
    32    21    23 1   
    33    21    35 1   
    34    22    36 1   
    35    23    24 1   
    36    23    25 1   
    37    23    37 1   
    38    24    38 1   
    39    24    39 1   
    40    24    40 1   
    41    25    41 1   
    42    25    42 1   
    43    25    43 1   
@<TRIPOS>SUBSTRUCTURE
     1 FEJ         1 TEMP              0 ****  ****    0 ROOT
