@<TRIPOS>MOLECULE
FFD
   31    32     1     0     0
SMALL
abcg2


@<TRIPOS>ATOM
      1 O3P         41.3670   -35.9060    79.2670 o          1 FFD      -0.922500
      2 C           44.9310   -31.9690    81.3450 ca         1 FFD      -0.092000
      3 C1          46.1590   -31.5820    80.8490 ca         1 FFD       0.162000
      4 F           46.3890   -31.7090    79.5310 f          1 FFD      -0.180000
      5 C3          47.1630   -31.0720    81.6510 ca         1 FFD      -0.178000
      6 C4          46.9110   -30.9520    83.0110 ca         1 FFD      -0.113000
      7 C5          45.6870   -31.3400    83.5390 ca         1 FFD      -0.140000
      8 C6          44.6900   -31.8440    82.7110 ca         1 FFD      -0.037300
      9 C7          43.3470   -32.2090    83.2740 c5         1 FFD       0.198600
     10 O4          42.8300   -33.3280    82.5930 os         1 FFD      -0.403000
     11 C2          42.2820   -31.1160    83.0950 c5         1 FFD      -0.142400
     12 C8          40.9720   -31.8970    82.8970 c5         1 FFD       0.129300
     13 O3          39.9840   -31.6900    83.8770 oh         1 FFD      -0.716000
     14 C9          41.4370   -33.3670    82.8170 c5         1 FFD       0.127300
     15 C10         40.7550   -34.2110    81.7630 c3         1 FFD       0.255600
     16 O5          40.9430   -33.6810    80.4910 os         1 FFD      -0.579400
     17 P           40.4640   -34.6790    79.1660 p5         1 FFD       1.269900
     18 O2P         38.9880   -34.9620    79.4250 o          1 FFD      -0.922500
     19 O1P         40.7560   -33.7570    77.9900 o          1 FFD      -0.922500
     20 H4          47.6810   -30.5610    83.6620 ha         1 FFD       0.090000
     21 H5          45.5070   -31.2520    84.6040 ha         1 FFD       0.098000
     22 H1          43.4600   -32.4340    84.3460 h1         1 FFD       0.008700
     23 H2'1        42.5050   -30.5110    82.2150 hc         1 FFD       0.044200
     24 H2'2        42.2380   -30.4420    83.9510 hc         1 FFD       0.044200
     25 H3          40.5060   -31.6020    81.9550 h1         1 FFD       0.135700
     26 H3T         40.3390   -31.9550    84.7330 ho         1 FFD       0.469000
     27 H6          41.2300   -33.8360    83.7960 h1         1 FFD      -0.015300
     28 H5'1        39.6920   -34.2640    82.0460 h1         1 FFD       0.010700
     29 H5'2        41.1380   -35.2390    81.8420 h1         1 FFD       0.010700
     30 H           44.1740   -32.3630    80.6790 ha         1 FFD       0.201000
     31 H7          48.1140   -30.7800    81.2270 ha         1 FFD       0.108000
@<TRIPOS>BOND
     1     1    17 1   
     2     2     3 ar  
     3     2     8 ar  
     4     2    30 1   
     5     3     4 1   
     6     3     5 ar  
     7     5     6 ar  
     8     5    31 1   
     9     6     7 ar  
    10     6    20 1   
    11     7     8 ar  
    12     7    21 1   
    13     8     9 1   
    14     9    10 1   
    15     9    11 1   
    16     9    22 1   
    17    10    14 1   
    18    11    12 1   
    19    11    23 1   
    20    11    24 1   
    21    12    13 1   
    22    12    14 1   
    23    12    25 1   
    24    13    26 1   
    25    14    15 1   
    26    14    27 1   
    27    15    16 1   
    28    15    28 1   
    29    15    29 1   
    30    16    17 1   
    31    17    18 1   
    32    17    19 1   
@<TRIPOS>SUBSTRUCTURE
     1 FFD         1 TEMP              0 ****  ****    0 ROOT
