@<TRIPOS>MOLECULE
FFT
   45    44     1     0     0
SMALL
abcg2


@<TRIPOS>ATOM
      1 O3          27.3450    21.4640    46.1410 o          1 FFT      -0.923500
      2 P           27.5680    19.9910    46.4620 p5         1 FFT       1.268900
      3 O1          27.2710    19.5890    47.9040 o          1 FFT      -0.923500
      4 O2          27.0380    19.0090    45.4190 o          1 FFT      -0.923500
      5 O           29.2780    19.8910    46.3260 os         1 FFT      -0.579400
      6 C14         29.8580    18.6470    46.6010 c3         1 FFT       0.253800
      7 C13         31.3160    18.6840    46.2590 c2         1 FFT      -0.111200
      8 C11         32.3550    18.3420    47.0270 c2         1 FFT      -0.243400
      9 C12         33.7590    18.4160    46.4960 c3         1 FFT      -0.025900
     10 C10         32.2400    17.8660    48.4500 c3         1 FFT      -0.002200
     11 C9          32.7460    18.8940    49.4760 c3         1 FFT      -0.054200
     12 C8          32.5110    18.4290    50.8810 c2         1 FFT      -0.157200
     13 C6          33.3850    17.7990    51.6700 c2         1 FFT      -0.182400
     14 C7          33.0110    17.3650    53.0570 c3         1 FFT      -0.038900
     15 C5          34.8010    17.4950    51.2580 c3         1 FFT      -0.022200
     16 C4          35.8040    18.5360    51.7830 c3         1 FFT      -0.045200
     17 C3          37.2060    18.2200    51.3620 c2         1 FFT      -0.190200
     18 C1          38.1540    17.6130    52.0810 c2         1 FFT      -0.147400
     19 C2          37.9760    17.1470    53.4960 c3         1 FFT      -0.046400
     20 C           39.5110    17.3360    51.5030 c3         1 FFT      -0.046400
     21 H3          29.7130    18.3580    47.6490 h1         1 FFT       0.009700
     22 H4          29.3860    17.8510    46.0030 h1         1 FFT       0.009700
     23 H5          31.5290    19.0150    45.2440 ha         1 FFT       0.152000
     24 H6          34.2390    17.4330    46.5250 hc         1 FFT       0.007367
     25 H7          33.7880    18.7740    45.4670 hc         1 FFT       0.007367
     26 H8          34.3830    19.0800    47.0980 hc         1 FFT       0.007367
     27 H9          31.2110    17.6020    48.6980 hc         1 FFT       0.035700
     28 H10         32.8250    16.9470    48.5690 hc         1 FFT       0.035700
     29 H11         33.8030    19.1070    49.3030 hc         1 FFT       0.049200
     30 H12         32.2150    19.8370    49.3160 hc         1 FFT       0.049200
     31 H13         31.5090    18.5980    51.2670 ha         1 FFT       0.180000
     32 H14         33.0780    16.2790    53.1580 hc         1 FFT       0.024700
     33 H15         33.6900    17.7860    53.8030 hc         1 FFT       0.024700
     34 H16         31.9980    17.6670    53.3210 hc         1 FFT       0.024700
     35 H17         35.0860    16.5130    51.6480 hc         1 FFT       0.041200
     36 H18         34.8920    17.4290    50.1710 hc         1 FFT       0.041200
     37 H19         35.5210    19.5160    51.3880 hc         1 FFT       0.045700
     38 H20         35.7200    18.6080    52.8690 hc         1 FFT       0.045700
     39 H21         37.4510    18.4900    50.3370 ha         1 FFT       0.166000
     40 H22         38.7090    17.6220    54.1540 hc         1 FFT       0.030700
     41 H23         36.9850    17.3450    53.8990 hc         1 FFT       0.030700
     42 H24         38.1530    16.0710    53.5670 hc         1 FFT       0.030700
     43 H25         40.2940    17.8180    52.0940 hc         1 FFT       0.030700
     44 H26         39.7310    16.2660    51.5160 hc         1 FFT       0.030700
     45 H27         39.6000    17.6870    50.4750 hc         1 FFT       0.030700
@<TRIPOS>BOND
     1     1     2 1   
     2     2     3 1   
     3     2     4 1   
     4     2     5 1   
     5     5     6 1   
     6     6     7 1   
     7     6    21 1   
     8     6    22 1   
     9     7     8 2   
    10     7    23 1   
    11     8     9 1   
    12     8    10 1   
    13     9    24 1   
    14     9    25 1   
    15     9    26 1   
    16    10    11 1   
    17    10    27 1   
    18    10    28 1   
    19    11    12 1   
    20    11    29 1   
    21    11    30 1   
    22    12    13 2   
    23    12    31 1   
    24    13    14 1   
    25    13    15 1   
    26    14    32 1   
    27    14    33 1   
    28    14    34 1   
    29    15    16 1   
    30    15    35 1   
    31    15    36 1   
    32    16    17 1   
    33    16    37 1   
    34    16    38 1   
    35    17    18 2   
    36    17    39 1   
    37    18    19 1   
    38    18    20 1   
    39    19    40 1   
    40    19    41 1   
    41    19    42 1   
    42    20    43 1   
    43    20    44 1   
    44    20    45 1   
@<TRIPOS>SUBSTRUCTURE
     1 FFT         1 TEMP              0 ****  ****    0 ROOT
