@<TRIPOS>MOLECULE
FJP
   45    44     1     0     0
SMALL
abcg2


@<TRIPOS>ATOM
      1 CAA         22.2960   -19.7650     7.9290 c3         1 FJP      -0.050400
      2 CAB         21.1570   -17.9510     9.2640 c3         1 FJP      -0.050400
      3 CAC         25.3740   -16.0020     9.4220 c3         1 FJP      -0.056900
      4 CAD         24.6930   -11.4620     6.0450 c3         1 FJP      -0.017900
      5 OAE         21.1810   -12.2740    10.9270 o          1 FJP      -0.926500
      6 OAF         21.9100   -14.2680     9.5000 o          1 FJP      -0.926500
      7 OAG         23.5880   -13.1680    11.1230 o          1 FJP      -0.926500
      8 CAH         22.9000   -17.3420     7.6260 c2         1 FJP      -0.194200
      9 CAI         25.5900   -14.7100     7.3270 c2         1 FJP      -0.210200
     10 CAJ         22.7560   -12.8430     6.8400 c2         1 FJP      -0.145200
     11 CAK         23.9840   -17.4970     6.6060 c3         1 FJP      -0.033200
     12 CAL         25.6750   -14.4340     5.8570 c3         1 FJP      -0.028200
     13 CAM         22.2290   -11.8490     7.8370 c3         1 FJP       0.280800
     14 CAN         25.3850   -17.2070     7.1790 c3         1 FJP      -0.026200
     15 CAO         24.3670   -13.8570     5.2750 c3         1 FJP      -0.012200
     16 OAP         22.9130   -11.9300     9.0620 os         1 FJP      -0.577400
     17 CAQ         22.1750   -18.2980     8.2150 c2         1 FJP      -0.156400
     18 CAR         25.4700   -15.8980     7.9260 c2         1 FJP      -0.114400
     19 CAS         23.8430   -12.6990     6.0800 c2         1 FJP      -0.214400
     20 PAT         22.3390   -13.0090    10.2590 p5         1 FJP       1.269900
     21 HAA         23.0170   -20.0000     7.1490 hc         1 FJP       0.029033
     22 HAAA        22.5920   -20.3070     8.8310 hc         1 FJP       0.029033
     23 HAAB        21.3300   -20.1790     7.6280 hc         1 FJP       0.029033
     24 HAB         21.1450   -16.8840     9.4840 hc         1 FJP       0.029033
     25 HABA        20.1520   -18.2510     8.9540 hc         1 FJP       0.029033
     26 HABB        21.3640   -18.4850    10.1950 hc         1 FJP       0.029033
     27 HAC         26.2340   -16.5490     9.8170 hc         1 FJP       0.052700
     28 HACA        25.3300   -15.0250     9.9030 hc         1 FJP       0.052700
     29 HACB        24.4830   -16.5590     9.7210 hc         1 FJP       0.052700
     30 HAD         24.9450   -11.1970     5.0160 hc         1 FJP       0.014367
     31 HADA        24.2160   -10.5990     6.5070 hc         1 FJP       0.014367
     32 HADB        25.6420   -11.6250     6.5630 hc         1 FJP       0.014367
     33 HAH         22.7160   -16.3160     7.9350 ha         1 FJP       0.259000
     34 HAI         25.6040   -13.8300     7.9650 ha         1 FJP       0.212000
     35 HAJ         22.2510   -13.8030     6.8160 ha         1 FJP       0.182000
     36 HAK         23.9900   -18.4940     6.1620 hc         1 FJP       0.020700
     37 HAKA        23.8000   -16.7970     5.7870 hc         1 FJP       0.020700
     38 HAL         26.4820   -13.7160     5.6780 hc         1 FJP       0.009700
     39 HALA        25.9370   -15.3350     5.2980 hc         1 FJP       0.009700
     40 HAM         22.3480   -10.8290     7.4510 h1         1 FJP      -0.015800
     41 HAMA        21.1470   -11.9960     7.9560 h1         1 FJP      -0.015800
     42 HAN         25.6560   -18.0230     7.8550 hc         1 FJP       0.015200
     43 HANA        26.1060   -17.2370     6.3580 hc         1 FJP       0.015200
     44 HAO         24.5580   -13.5440     4.2420 hc         1 FJP       0.014200
     45 HAOA        23.6160   -14.6490     5.2340 hc         1 FJP       0.014200
@<TRIPOS>BOND
     1     1    17 1   
     2     1    21 1   
     3     1    22 1   
     4     1    23 1   
     5     2    17 1   
     6     2    24 1   
     7     2    25 1   
     8     2    26 1   
     9     3    18 1   
    10     3    27 1   
    11     3    28 1   
    12     3    29 1   
    13     4    19 1   
    14     4    30 1   
    15     4    31 1   
    16     4    32 1   
    17     5    20 1   
    18     6    20 1   
    19     7    20 1   
    20     8    11 1   
    21     8    17 2   
    22     8    33 1   
    23     9    12 1   
    24     9    18 2   
    25     9    34 1   
    26    10    13 1   
    27    10    19 2   
    28    10    35 1   
    29    11    14 1   
    30    11    36 1   
    31    11    37 1   
    32    12    15 1   
    33    12    38 1   
    34    12    39 1   
    35    13    16 1   
    36    13    40 1   
    37    13    41 1   
    38    14    18 1   
    39    14    42 1   
    40    14    43 1   
    41    15    19 1   
    42    15    44 1   
    43    15    45 1   
    44    16    20 1   
@<TRIPOS>SUBSTRUCTURE
     1 FJP         1 TEMP              0 ****  ****    0 ROOT
