@<TRIPOS>MOLECULE
FOX
   40    41     1     0     0
SMALL
abcg2


@<TRIPOS>ATOM
      1 O1P         -1.9800    -1.8150    -1.9660 o          1 FOX      -0.894167
      2 P           -2.0490    -1.9830    -0.4600 p5         1 FOX       1.293900
      3 O2P         -2.7270    -0.8160     0.2900 o          1 FOX      -0.894167
      4 O5          -0.4030    -1.8670    -0.0250 os         1 FOX      -0.585400
      5 C5          -0.1030    -1.9200     1.3350 c3         1 FOX       0.244600
      6 C4           1.2750    -1.3210     1.6170 c5         1 FOX      -0.069700
      7 C6           1.4610     0.0730     1.0160 c5         1 FOX      -0.092400
      8 C3           1.4320    -1.0650     3.1150 c5         1 FOX       0.151300
      9 O3           2.8100    -0.9030     3.3830 oh         1 FOX      -0.672000
     10 C2           0.6520     0.2350     3.3320 c5         1 FOX      -0.115400
     11 C1           0.8540     1.0570     2.0440 c5         1 FOX       0.221500
     12 N9          -0.4030     1.6580     1.6120 nu         1 FOX      -0.815200
     13 C9          -0.4890     2.4250     0.5000 cc         1 FOX       0.331000
     14 N3           0.6320     3.1110     0.1130 na         1 FOX      -0.797200
     15 C11          0.5980     3.9480    -0.9610 cc         1 FOX       0.855100
     16 N2           1.7590     4.5570    -1.2770 nv         1 FOX      -1.055200
     17 N1          -0.4600     4.1350    -1.6840 nd         1 FOX      -0.792100
     18 C10         -1.6250     3.4580    -1.3930 c          1 FOX       0.726700
     19 O6          -2.6200     3.6220    -2.0990 o          1 FOX      -0.581100
     20 C7          -1.6270     2.5710    -0.2510 cd         1 FOX      -0.172600
     21 N7          -2.7750     1.8280     0.0780 ns         1 FOX      -0.434100
     22 C8          -3.9320     2.4420     0.3570 c          1 FOX       0.609900
     23 O8          -5.0010     1.8810     0.5440 o          1 FOX      -0.644100
     24 O3P         -2.5090    -3.3420     0.0470 o          1 FOX      -0.894167
     25 H5'1        -0.8660    -1.3890     1.9190 h1         1 FOX      -0.002300
     26 H5'2        -0.1050    -2.9550     1.7100 h1         1 FOX      -0.002300
     27 H4           2.0400    -2.0130     1.2520 hc         1 FOX       0.057700
     28 H6'1         2.5220     0.2890     0.8830 hc         1 FOX       0.058200
     29 H6'2         0.9980     0.1650     0.0330 hc         1 FOX       0.058200
     30 H3           1.0140    -1.8830     3.7190 h1         1 FOX       0.038700
     31 H3T          2.9080    -0.6520     4.3060 ho         1 FOX       0.411000
     32 H2'1         0.9780     0.7720     4.2240 hc         1 FOX       0.046700
     33 H2'2        -0.4060     0.0080     3.4840 hc         1 FOX       0.046700
     34 H1           1.5610     1.8610     2.2560 h1         1 FOX       0.011700
     35 H9          -1.2240     1.0870     1.7580 hn         1 FOX       0.536000
     36 H10          1.4970     2.9900     0.6200 hn         1 FOX       0.488000
     37 H21          2.4750     4.6810    -0.5800 hn         1 FOX       0.470500
     38 H22          1.6950     5.2960    -1.9580 hn         1 FOX       0.470500
     39 H7          -2.7500     0.7640     0.0460 hn         1 FOX       0.447500
     40 H8          -3.8350     3.5390     0.4080 h5         1 FOX      -0.063800
@<TRIPOS>BOND
     1     1     2 1   
     2     2     3 1   
     3     2     4 1   
     4     2    24 1   
     5     4     5 1   
     6     5     6 1   
     7     5    25 1   
     8     5    26 1   
     9     6     7 1   
    10     6     8 1   
    11     6    27 1   
    12     7    11 1   
    13     7    28 1   
    14     7    29 1   
    15     8     9 1   
    16     8    10 1   
    17     8    30 1   
    18     9    31 1   
    19    10    11 1   
    20    10    32 1   
    21    10    33 1   
    22    11    12 1   
    23    11    34 1   
    24    12    13 1   
    25    12    35 1   
    26    13    14 1   
    27    13    20 2   
    28    14    15 1   
    29    14    36 1   
    30    15    16 1   
    31    15    17 2   
    32    16    37 1   
    33    16    38 1   
    34    17    18 1   
    35    18    19 2   
    36    18    20 1   
    37    20    21 1   
    38    21    22 1   
    39    21    39 1   
    40    22    23 2   
    41    22    40 1   
@<TRIPOS>SUBSTRUCTURE
     1 FOX         1 TEMP              0 ****  ****    0 ROOT
