@<TRIPOS>MOLECULE
S4C
   33    34     1     0     0
SMALL
abcg2


@<TRIPOS>ATOM
      1 N1          -0.8950    -0.5680     2.3330 n          1 S4C      -0.291000
      2 C2          -2.1440    -1.0230     2.8010 c          1 S4C       0.715400
      3 O2          -2.4580    -2.1950     2.6430 o          1 S4C      -0.583000
      4 N3          -2.9530    -0.1340     3.4140 nc         1 S4C      -0.817100
      5 C1          -0.0460    -1.4830     1.5920 c5         1 S4C       0.216700
      6 C4          -2.5870     1.1210     3.5810 cd         1 S4C       0.776500
      7 N4          -3.4390     1.9500     4.1830 nv         1 S4C      -1.057200
      8 C5          -1.3180     1.6080     3.1390 cd         1 S4C      -0.506600
      9 C6          -0.5140     0.7200     2.5230 cc         1 S4C       0.052600
     10 C7           0.0590    -1.1240     0.1100 c5         1 S4C       0.150300
     11 O1          -1.1420    -1.4580    -0.5220 oh         1 S4C      -0.638000
     12 C3           1.2980    -1.8460    -0.4160 c5         1 S4C       0.126300
     13 O3           1.0170    -3.2200    -0.4260 oh         1 S4C      -0.654000
     14 C8           2.4250    -1.4760     0.5490 c5         1 S4C       0.027300
     15 S4           1.6680    -1.5000     2.2200 ss         1 S4C      -0.362000
     16 OP1          2.7930     2.3610     2.0310 o          1 S4C      -0.920500
     17 C9           3.0630    -0.1300     0.2400 c3         1 S4C       0.266600
     18 O5           3.9640     0.2050     1.2390 os         1 S4C      -0.562400
     19 OP2          4.6060     2.4710     0.2210 o          1 S4C      -0.920500
     20 P            4.1690     1.8850     1.5600 p5         1 S4C       1.268900
     21 OP3          5.2380     1.8340     2.6400 o          1 S4C      -0.920500
     22 H1          -0.4850    -2.4700     1.7050 h2         1 S4C       0.122700
     23 H41         -4.3270     1.6100     4.5110 hn         1 S4C       0.484000
     24 H42         -3.2080     2.9130     4.3530 hn         1 S4C       0.484000
     25 H5          -1.0090     2.6310     3.2950 ha         1 S4C       0.215000
     26 H6           0.4770     0.9990     2.1790 h4         1 S4C       0.300000
     27 H7           0.2550    -0.0470     0.0310 h1         1 S4C       0.071700
     28 H2          -1.1830    -0.9940    -1.3650 ho         1 S4C       0.428000
     29 H3           1.5480    -1.4820    -1.4230 h1         1 S4C       0.040700
     30 H9           1.7990    -3.6900    -0.7330 ho         1 S4C       0.430000
     31 H4           3.2030    -2.2450     0.5360 h1         1 S4C       0.069700
     32 H8           2.2760     0.6270     0.1230 h1         1 S4C      -0.007300
     33 H5'          3.5510    -0.2200    -0.7440 h1         1 S4C      -0.007300
@<TRIPOS>BOND
     1     1     2 1   
     2     1     5 1   
     3     1     9 1   
     4     2     3 2   
     5     2     4 1   
     6     4     6 2   
     7     5    10 1   
     8     5    15 1   
     9     5    22 1   
    10     6     7 1   
    11     6     8 1   
    12     7    23 1   
    13     7    24 1   
    14     8     9 2   
    15     8    25 1   
    16     9    26 1   
    17    10    11 1   
    18    10    12 1   
    19    10    27 1   
    20    11    28 1   
    21    12    13 1   
    22    12    14 1   
    23    12    29 1   
    24    13    30 1   
    25    14    15 1   
    26    14    17 1   
    27    14    31 1   
    28    16    20 1   
    29    17    18 1   
    30    17    32 1   
    31    17    33 1   
    32    18    20 1   
    33    19    20 1   
    34    20    21 1   
@<TRIPOS>SUBSTRUCTURE
     1 S4C         1 TEMP              0 ****  ****    0 ROOT
