@<TRIPOS>MOLECULE
S70
   21    20     1     0     0
SMALL
abcg2


@<TRIPOS>ATOM
      1 C1          22.3140   -15.6310    18.5810 c3         1 S70       0.250600
      2 C2          22.0440   -17.0940    18.2330 c3         1 S70       0.055300
      3 C3          20.6650   -17.5450    18.7330 c          1 S70       0.596100
      4 C4          19.6550   -18.0380    17.7850 c3         1 S70      -0.479400
      5 O5          22.2620   -17.2710    16.8550 oh         1 S70      -0.617000
      6 O6          20.4630   -17.4740    19.9380 o          1 S70      -0.638100
      7 O7          23.6480   -15.3130    18.3250 os         1 S70      -0.612400
      8 P8          18.3680   -16.6800    17.2930 p5         1 S70       1.307500
      9 O9          17.6350   -17.3530    16.1330 o          1 S70      -0.928167
     10 O10         17.5310   -16.4840    18.5550 o          1 S70      -0.928167
     11 O11         19.2130   -15.4670    16.9000 o          1 S70      -0.928167
     12 P12         24.5050   -14.3770    19.4790 p5         1 S70       1.300900
     13 O13         25.8930   -14.3510    18.8510 o          1 S70      -0.949500
     14 O14         24.4010   -15.1680    20.7820 o          1 S70      -0.949500
     15 O15         23.7810   -13.0320    19.5080 o          1 S70      -0.949500
     16 H11         21.6250   -15.0090    17.9930 h1         1 S70       0.040200
     17 H12         22.0460   -15.4950    19.6330 h1         1 S70       0.040200
     18 HC2         22.7620   -17.6940    18.8150 h1         1 S70      -0.002300
     19 H41         20.0950   -18.4020    16.8580 hc         1 S70       0.014700
     20 H42         19.0810   -18.8460    18.2430 hc         1 S70       0.014700
     21 HO5         22.2770   -18.2130    16.6640 ho         1 S70       0.364000
@<TRIPOS>BOND
     1     1     2 1   
     2     1     7 1   
     3     1    16 1   
     4     1    17 1   
     5     2     3 1   
     6     2     5 1   
     7     2    18 1   
     8     3     4 1   
     9     3     6 2   
    10     4     8 1   
    11     4    19 1   
    12     4    20 1   
    13     5    21 1   
    14     7    12 1   
    15     8     9 1   
    16     8    10 1   
    17     8    11 1   
    18    12    13 1   
    19    12    14 1   
    20    12    15 1   
@<TRIPOS>SUBSTRUCTURE
     1 S70         1 TEMP              0 ****  ****    0 ROOT
