@<TRIPOS>MOLECULE
S8L
   40    41     1     0     0
SMALL
abcg2


@<TRIPOS>ATOM
      1 C14         18.6580    33.6000   -28.0310 c3         1 S8L       0.246600
      2 C15         19.7060    33.4020   -29.0980 c5         1 S8L       0.127300
      3 C16         20.8090    34.4560   -29.0920 c5         1 S8L       0.145300
      4 C17         21.3170    34.3950   -30.5410 c5         1 S8L       0.072300
      5 C19         20.0090    34.1170   -31.3130 c5         1 S8L       0.265300
      6 C21         19.7320    35.9000   -33.1070 cc         1 S8L      -0.325600
      7 C22         20.6650    35.3280   -34.0360 c          1 S8L       0.571500
      8 C24         19.0000    37.0830   -33.2160 cd         1 S8L      -0.130000
      9 C25         18.2400    37.2230   -32.0510 cd         1 S8L      -0.237000
     10 C26         18.5170    36.1270   -31.2430 cc         1 S8L      -0.114000
     11 N20         19.4070    35.3280   -31.8780 na         1 S8L       0.030000
     12 O02         19.1030    30.7120   -27.0770 o          1 S8L      -0.879000
     13 O03         16.5440    30.4730   -27.3850 o          1 S8L      -0.879000
     14 O04         17.5350    32.1090   -25.6610 os         1 S8L      -0.735800
     15 O06         17.7350    32.5320   -23.2070 o          1 S8L      -0.931500
     16 O07         17.3410    30.1340   -24.0590 o          1 S8L      -0.931500
     17 O08         15.4920    31.7990   -24.2110 os         1 S8L      -0.739800
     18 O10         13.1840    32.6680   -24.6070 o          1 S8L      -0.908500
     19 O11         14.4220    33.3560   -22.4850 o          1 S8L      -0.908500
     20 O12         15.1450    34.2980   -24.7480 o          1 S8L      -0.908500
     21 O13         17.6630    32.5760   -28.0740 os         1 S8L      -0.571400
     22 O18         22.2160    33.3080   -30.6660 oh         1 S8L      -0.679000
     23 O23         20.9500    35.8250   -35.1220 o          1 S8L      -0.641100
     24 O27         19.1040    33.5320   -30.4020 os         1 S8L      -0.415000
     25 O28         21.7590    34.1680   -28.0910 oh         1 S8L      -0.654000
     26 P01         17.7330    31.3100   -27.0570 p5         1 S8L       1.495800
     27 P05         17.0720    31.6020   -24.1730 p5         1 S8L       1.583800
     28 P09         14.4840    33.1580   -23.9910 p5         1 S8L       1.392900
     29 H1          19.1500    33.6270   -27.0580 h1         1 S8L       0.045700
     30 H2          18.1480    34.5510   -28.1840 h1         1 S8L       0.045700
     31 H3          20.1440    32.4080   -29.0000 h1         1 S8L       0.120700
     32 H4          20.3650    35.4410   -28.9290 h1         1 S8L       0.040700
     33 H5          21.7780    35.3280   -30.8670 h1         1 S8L       0.027700
     34 H6          20.1960    33.4300   -32.1360 h2         1 S8L       0.058700
     35 H8          21.1440    34.3840   -33.7330 h4         1 S8L      -0.041800
     36 H9          19.0310    37.7470   -34.0620 ha         1 S8L       0.109000
     37 H10         17.5570    38.0190   -31.8080 ha         1 S8L       0.117000
     38 H11         18.1270    35.8640   -30.2780 h4         1 S8L       0.190000
     39 H16         22.5700    33.3050   -31.5620 ho         1 S8L       0.472000
     40 H18         22.3070    34.9460   -27.9470 ho         1 S8L       0.472000
@<TRIPOS>BOND
     1     1     2 1   
     2     1    21 1   
     3     1    29 1   
     4     1    30 1   
     5     2     3 1   
     6     2    24 1   
     7     2    31 1   
     8     3     4 1   
     9     3    25 1   
    10     3    32 1   
    11     4     5 1   
    12     4    22 1   
    13     4    33 1   
    14     5    11 1   
    15     5    24 1   
    16     5    34 1   
    17     6     7 1   
    18     6     8 2   
    19     6    11 1   
    20     7    23 2   
    21     7    35 1   
    22     8     9 1   
    23     8    36 1   
    24     9    10 2   
    25     9    37 1   
    26    10    11 1   
    27    10    38 1   
    28    12    26 1   
    29    13    26 1   
    30    14    26 1   
    31    14    27 1   
    32    15    27 1   
    33    16    27 1   
    34    17    27 1   
    35    17    28 1   
    36    18    28 1   
    37    19    28 1   
    38    20    28 1   
    39    21    26 1   
    40    22    39 1   
    41    25    40 1   
@<TRIPOS>SUBSTRUCTURE
     1 S8L         1 TEMP              0 ****  ****    0 ROOT
