@<TRIPOS>MOLECULE
SE6
   28    27     1     0     0
SMALL
abcg2


@<TRIPOS>ATOM
      1 OAM         19.0850    21.3680    -1.2420 o          1 SE6      -0.950833
      2 PAK         20.4840    21.3520    -0.6410 p5         1 SE6       1.356900
      3 OAN         21.1450    19.9820    -0.5930 o          1 SE6      -0.950833
      4 OAL         20.6500    22.1930     0.6200 o          1 SE6      -0.950833
      5 OAJ         21.3640    22.2060    -1.8810 os         1 SE6      -0.736800
      6 PAG         22.8110    22.8970    -1.8940 p5         1 SE6       1.461800
      7 OAI         23.7620    22.3450    -0.8720 o          1 SE6      -0.890000
      8 OAH         23.2420    22.9880    -3.3350 o          1 SE6      -0.890000
      9 OAF         22.5000    24.4430    -1.3650 os         1 SE6      -0.583400
     10 CAE         21.5290    25.2140    -2.0400 c3         1 SE6       0.255800
     11 CAC         20.3170    25.4010    -1.1740 c2         1 SE6      -0.065200
     12 CAB         19.5760    26.5040    -1.0870 c2         1 SE6      -0.285400
     13 CAA         18.3770    26.6120    -0.1920 c3         1 SE6       0.236800
     14 OAP         18.2130    25.4630     0.5970 oh         1 SE6      -0.589000
     15 CAD         19.8650    27.7810    -1.8450 c3         1 SE6       0.010000
     16 CAO         20.7320    28.7000    -1.0350 c2         1 SE6      -0.140200
     17 CAQ         20.3530    29.8770    -0.5540 c2         1 SE6      -0.414000
     18 H4          21.2350    24.7480    -2.9890 h1         1 SE6       0.004200
     19 H5          21.9780    26.1760    -2.3060 h1         1 SE6       0.004200
     20 H6          20.0480    24.5330    -0.5820 ha         1 SE6       0.280000
     21 H7          18.4930    27.5150     0.4260 h1         1 SE6      -0.033300
     22 H8          17.4950    26.7970    -0.8240 h1         1 SE6      -0.033300
     23 H9          17.4230    25.5780     1.1330 ho         1 SE6       0.402000
     24 H10         18.9260    28.2870    -2.0900 hc         1 SE6       0.026200
     25 H11         20.3510    27.5620    -2.7970 hc         1 SE6       0.026200
     26 H12         21.7370    28.3390    -0.8310 ha         1 SE6       0.184000
     27 H14         21.0210    30.4910     0.0360 ha         1 SE6       0.132500
     28 H15         19.3590    30.2710    -0.7330 ha         1 SE6       0.132500
@<TRIPOS>BOND
     1     1     2 1   
     2     2     3 1   
     3     2     4 1   
     4     2     5 1   
     5     5     6 1   
     6     6     7 1   
     7     6     8 1   
     8     6     9 1   
     9     9    10 1   
    10    10    11 1   
    11    10    18 1   
    12    10    19 1   
    13    11    12 2   
    14    11    20 1   
    15    12    13 1   
    16    12    15 1   
    17    13    14 1   
    18    13    21 1   
    19    13    22 1   
    20    14    23 1   
    21    15    16 1   
    22    15    24 1   
    23    15    25 1   
    24    16    17 2   
    25    16    26 1   
    26    17    27 1   
    27    17    28 1   
@<TRIPOS>SUBSTRUCTURE
     1 SE6         1 TEMP              0 ****  ****    0 ROOT
