@<TRIPOS>MOLECULE
SFC
  111   114     1     0     0
SMALL
abcg2


@<TRIPOS>ATOM
      1 O7A         66.3330    11.8450    30.6700 o          1 SFC      -0.872167
      2 P3B         64.8750    11.3310    30.5500 p5         1 SFC       1.286900
      3 O9A         64.1220    11.9380    29.3870 o          1 SFC      -0.872167
      4 O8A         64.7430     9.8350    30.7570 o          1 SFC      -0.872167
      5 O3B         64.1000    12.0520    31.8820 os         1 SFC      -0.586400
      6 C3B         64.3580    11.6160    33.1870 c5         1 SFC       0.213300
      7 C2B         65.6540    12.2140    33.7620 c5         1 SFC       0.154300
      8 O2B         66.8390    12.0730    33.0850 oh         1 SFC      -0.843000
      9 C1B         65.1860    13.6650    33.9600 c5         1 SFC       0.224300
     10 N9A         65.9380    14.3460    35.0140 na         1 SFC      -0.163200
     11 C4A         67.0860    15.0850    34.8350 ca         1 SFC       0.173500
     12 C5A         67.4960    15.4880    36.0900 ca         1 SFC      -0.275200
     13 C6A         68.6620    16.2750    36.1760 ca         1 SFC       0.429900
     14 N6A         69.1710    16.7260    37.3150 nv         1 SFC      -1.089900
     15 N1A         69.2670    16.5650    35.0230 nb         1 SFC      -0.292000
     16 C2A         68.7620    16.1220    33.8770 ca         1 SFC       0.174900
     17 N3A         67.6840    15.3800    33.6920 nb         1 SFC      -0.087000
     18 N7A         66.5830    14.9800    36.9830 na         1 SFC      -0.260600
     19 C8A         65.6680    14.3060    36.3160 cc         1 SFC       0.309700
     20 O4B         63.8550    13.5990    34.3570 os         1 SFC      -0.494000
     21 C4B         63.3280    12.2830    34.0950 c5         1 SFC       0.133300
     22 C5B         63.0770    11.5930    35.4280 c3         1 SFC       0.224600
     23 O5B         62.4620    10.3500    35.1630 os         1 SFC      -0.561400
     24 P1A         61.6300     9.5860    36.3460 p5         1 SFC       1.483800
     25 O1A         61.3240     8.2210    35.8380 o          1 SFC      -0.843500
     26 O2A         62.3750     9.7800    37.6480 o          1 SFC      -0.843500
     27 O3A         60.3080    10.5380    36.4350 os         1 SFC      -0.730800
     28 P2A         58.7140    10.1500    36.2240 p5         1 SFC       1.467800
     29 O4A         57.9730    11.4090    36.5490 o          1 SFC      -0.839500
     30 O5A         58.5130     9.4340    34.9320 o          1 SFC      -0.839500
     31 O6A         58.4970     9.0420    37.4050 os         1 SFC      -0.606400
     32 CCP         58.3270     9.4470    38.7510 c3         1 SFC       0.245600
     33 CBP         58.7540     8.3290    39.7060 c3         1 SFC      -0.061000
     34 CDP         58.4220     8.8000    41.1230 c3         1 SFC      -0.071100
     35 CEP         57.9450     7.0670    39.3970 c3         1 SFC      -0.071100
     36 CAP         60.2790     8.0960    39.5430 c3         1 SFC       0.126300
     37 OAP         60.9760     9.2840    39.8000 oh         1 SFC      -0.764000
     38 C9P         60.7920     6.9730    40.4470 c          1 SFC       0.583100
     39 O9P         60.5890     5.7900    40.1940 o          1 SFC      -0.653100
     40 N8P         61.4840     7.3790    41.5180 ns         1 SFC      -0.510900
     41 C7P         62.0410     6.4780    42.4990 c3         1 SFC       0.126000
     42 C6P         60.9980     5.9140    43.4550 c3         1 SFC      -0.179400
     43 C5P         60.2560     7.0140    44.1810 c          1 SFC       0.611100
     44 O5P         60.8260     8.0030    44.6200 o          1 SFC      -0.620100
     45 N4P         58.9310     6.8240    44.3100 ns         1 SFC      -0.507900
     46 C3P         58.0520     7.7740    44.9480 c3         1 SFC       0.112000
     47 C2P         58.0880     7.6640    46.4690 c3         1 SFC       0.038600
     48 S1P         56.9720     8.8480    47.2630 ss         1 SFC      -0.361600
     49 C1          55.4130     8.0140    47.0780 c          1 SFC       0.607700
     50 O1          55.3240     6.8960    46.6440 o          1 SFC      -0.512100
     51 C2          54.2180     8.8710    47.4640 c3         1 SFC      -0.108400
     52 C13         52.9610     8.0250    47.6500 c3         1 SFC      -0.075100
     53 C3          54.5070     9.7490    48.6560 ca         1 SFC      -0.076300
     54 C4          54.8070     9.1910    49.8960 ca         1 SFC      -0.090000
     55 C8          55.0600     9.9990    50.9930 ca         1 SFC      -0.109500
     56 C7          55.0170    11.3880    50.8900 ca         1 SFC      -0.076300
     57 C6          54.7050    11.9420    49.6510 ca         1 SFC      -0.109500
     58 C5          54.4550    11.1350    48.5510 ca         1 SFC      -0.090000
     59 C9          55.3330    12.2720    52.0630 c3         1 SFC      -0.027100
     60 C10         56.7140    12.9380    51.9690 c3         1 SFC      -0.058700
     61 C12         56.9170    13.8880    53.1440 c3         1 SFC      -0.088100
     62 C11         57.8330    11.9050    51.9100 c3         1 SFC      -0.088100
     63 H3          64.3400    10.5240    33.2670 h1         1 SFC       0.119700
     64 H2          65.7860    11.7850    34.7680 h1         1 SFC       0.009700
     65 H7          66.6690    12.0300    32.0660 ho         1 SFC       0.621000
     66 H1          65.3260    14.2650    33.0560 h2         1 SFC       0.135700
     67 HN61        68.7520    16.5410    38.2090 hn         1 SFC       0.497500
     68 HN62        70.0110    17.2810    37.2990 hn         1 SFC       0.497500
     69 H11         69.3070    16.4050    32.9850 h5         1 SFC       0.062100
     70 HN7         66.5700    15.0930    37.9880 hn         1 SFC       0.373000
     71 H9          64.8290    13.8070    36.7710 h5         1 SFC       0.138800
     72 H4          62.3750    12.4000    33.5740 h1         1 SFC       0.122700
     73 H5'1        62.4400    12.2450    36.0360 h1         1 SFC      -0.004300
     74 H5'2        64.0140    11.4480    35.9780 h1         1 SFC      -0.004300
     75 H41         57.2690     9.6700    38.9350 h1         1 SFC       0.016200
     76 H42         58.8880    10.3580    38.9760 h1         1 SFC       0.016200
     77 H11X        57.3670     9.0750    41.1940 hc         1 SFC       0.020700
     78 H12         59.0090     9.6690    41.4220 hc         1 SFC       0.020700
     79 H13         58.5920     8.0130    41.8580 hc         1 SFC       0.020700
     80 H141        58.2120     6.6270    38.4370 hc         1 SFC       0.020700
     81 H142        56.8810     7.3110    39.3670 hc         1 SFC       0.020700
     82 H143        58.0810     6.3040    40.1620 hc         1 SFC       0.020700
     83 H17         60.4510     7.7520    38.5150 h1         1 SFC       0.116700
     84 H15         61.5460     9.4900    39.0150 ho         1 SFC       0.549000
     85 HN8         61.6360     8.3690    41.6210 hn         1 SFC       0.350500
     86 H71         62.7970     7.0290    43.0560 h1         1 SFC       0.044700
     87 H72         62.5500     5.6520    42.0010 h1         1 SFC       0.044700
     88 H61         61.5050     5.2930    44.2000 hc         1 SFC       0.057200
     89 H62         60.3100     5.2590    42.9170 hc         1 SFC       0.057200
     90 HN4         58.5230     5.9830    43.9380 hn         1 SFC       0.320500
     91 H31         57.0460     7.5820    44.5810 h1         1 SFC       0.067200
     92 H32         58.3230     8.7860    44.6430 h1         1 SFC       0.067200
     93 H21         59.0810     7.9050    46.8490 h1         1 SFC       0.082200
     94 H22         57.8370     6.6570    46.8010 h1         1 SFC       0.082200
     95 H16         54.0680     9.5260    46.5970 hc         1 SFC       0.086700
     96 H131        52.7290     7.4540    46.7520 hc         1 SFC       0.042367
     97 H132        52.1130     8.6750    47.8610 hc         1 SFC       0.042367
     98 H133        53.0680     7.3280    48.4810 hc         1 SFC       0.042367
     99 H18         54.8520     8.1130    50.0110 ha         1 SFC       0.116000
    100 H8          55.3010     9.5420    51.9460 ha         1 SFC       0.108000
    101 H6          54.6570    13.0190    49.5420 ha         1 SFC       0.108000
    102 H5          54.2140    11.5900    47.5970 ha         1 SFC       0.116000
    103 H91         55.2830    11.6890    52.9890 hc         1 SFC       0.040200
    104 H92         54.5720    13.0540    52.1450 hc         1 SFC       0.040200
    105 H10         56.7390    13.5280    51.0460 hc         1 SFC       0.053700
    106 H121        56.1360    14.6490    53.1860 hc         1 SFC       0.032533
    107 H122        57.8770    14.4020    53.0760 hc         1 SFC       0.032533
    108 H123        56.9030    13.3440    54.0920 hc         1 SFC       0.032533
    109 H111        57.7410    11.2520    51.0410 hc         1 SFC       0.032533
    110 H112        57.8230    11.2730    52.8020 hc         1 SFC       0.032533
    111 H113        58.8100    12.3890    51.8580 hc         1 SFC       0.032533
@<TRIPOS>BOND
     1     1     2 1   
     2     2     3 1   
     3     2     4 1   
     4     2     5 1   
     5     5     6 1   
     6     6     7 1   
     7     6    21 1   
     8     6    63 1   
     9     7     8 1   
    10     7     9 1   
    11     7    64 1   
    12     8    65 1   
    13     9    10 1   
    14     9    20 1   
    15     9    66 1   
    16    10    11 1   
    17    10    19 2   
    18    11    12 ar  
    19    11    17 ar  
    20    12    13 ar  
    21    12    18 1   
    22    13    14 1   
    23    13    15 ar  
    24    14    67 1   
    25    14    68 1   
    26    15    16 ar  
    27    16    17 ar  
    28    16    69 1   
    29    18    19 1   
    30    18    70 1   
    31    19    71 1   
    32    20    21 1   
    33    21    22 1   
    34    21    72 1   
    35    22    23 1   
    36    22    73 1   
    37    22    74 1   
    38    23    24 1   
    39    24    25 1   
    40    24    26 1   
    41    24    27 1   
    42    27    28 1   
    43    28    29 1   
    44    28    30 1   
    45    28    31 1   
    46    31    32 1   
    47    32    33 1   
    48    32    75 1   
    49    32    76 1   
    50    33    34 1   
    51    33    35 1   
    52    33    36 1   
    53    34    77 1   
    54    34    78 1   
    55    34    79 1   
    56    35    80 1   
    57    35    81 1   
    58    35    82 1   
    59    36    37 1   
    60    36    38 1   
    61    36    83 1   
    62    37    84 1   
    63    38    39 2   
    64    38    40 1   
    65    40    41 1   
    66    40    85 1   
    67    41    42 1   
    68    41    86 1   
    69    41    87 1   
    70    42    43 1   
    71    42    88 1   
    72    42    89 1   
    73    43    44 2   
    74    43    45 1   
    75    45    46 1   
    76    45    90 1   
    77    46    47 1   
    78    46    91 1   
    79    46    92 1   
    80    47    48 1   
    81    47    93 1   
    82    47    94 1   
    83    48    49 1   
    84    49    50 2   
    85    49    51 1   
    86    51    52 1   
    87    51    53 1   
    88    51    95 1   
    89    52    96 1   
    90    52    97 1   
    91    52    98 1   
    92    53    54 ar  
    93    53    58 ar  
    94    54    55 ar  
    95    54    99 1   
    96    55    56 ar  
    97    55   100 1   
    98    56    57 ar  
    99    56    59 1   
   100    57    58 ar  
   101    57   101 1   
   102    58   102 1   
   103    59    60 1   
   104    59   103 1   
   105    59   104 1   
   106    60    61 1   
   107    60    62 1   
   108    60   105 1   
   109    61   106 1   
   110    61   107 1   
   111    61   108 1   
   112    62   109 1   
   113    62   110 1   
   114    62   111 1   
@<TRIPOS>SUBSTRUCTURE
     1 SFC         1 TEMP              0 ****  ****    0 ROOT
