@<TRIPOS>MOLECULE
SLN
   64    65     1     0     0
SMALL
abcg2


@<TRIPOS>ATOM
      1 O1B         42.8710    41.4440    58.4710 o          1 SLN      -0.942500
      2 PB          41.6450    41.7410    59.3210 p5         1 SLN       1.343900
      3 O2B         40.3500    41.1030    58.8350 o          1 SLN      -0.942500
      4 O3B         41.8730    41.6840    60.8240 o          1 SLN      -0.942500
      5 O3A         41.3920    43.4570    59.0790 os         1 SLN      -0.734800
      6 PA          40.3550    44.1370    58.0600 p5         1 SLN       1.445800
      7 O1A         40.5960    43.7420    56.6330 o          1 SLN      -0.869500
      8 O2A         38.9580    44.1450    58.6200 o          1 SLN      -0.869500
      9 O2          40.9390    45.7040    58.1420 os         1 SLN      -0.578400
     10 C2          40.7530    46.4510    59.3180 c3         1 SLN       0.227300
     11 C1A         39.4740    47.2910    59.2200 c3         1 SLN       0.051000
     12 NB          39.0700    47.8430    60.4920 ns         1 SLN      -0.480900
     13 C1B         39.2200    49.1270    60.8700 c          1 SLN       0.598100
     14 OC          39.7350    49.9750    60.1540 o          1 SLN      -0.632100
     15 CA          38.6810    49.4270    62.2590 c5         1 SLN      -0.145700
     16 CB          37.9690    50.7890    62.3340 c5         1 SLN      -0.064400
     17 CC          38.9560    51.7920    62.9680 c5         1 SLN       0.175200
     18 CC1         38.3570    52.4180    64.2350 c3         1 SLN      -0.093100
     19 CC2         39.3370    52.9190    62.0110 c3         1 SLN      -0.093100
     20 ND          40.1380    50.9460    63.2030 n3         1 SLN      -0.464100
     21 OR          40.9970    51.4170    64.1830 oh         1 SLN      -0.422300
     22 CE          39.7820    49.5330    63.3380 c5         1 SLN       0.187200
     23 CE1         39.1840    49.1270    64.6950 c3         1 SLN      -0.102600
     24 CE2         41.0170    48.6750    63.0870 c3         1 SLN      -0.102600
     25 C1          41.9680    47.3420    59.5030 c3         1 SLN       0.047600
     26 N1          43.1580    46.5500    59.7090 nu         1 SLN      -0.382700
     27 CB1         44.3570    47.0850    59.9890 cc         1 SLN       0.426900
     28 CB2         45.5630    46.3580    60.1880 cc         1 SLN      -0.367700
     29 NN1         45.6110    44.9310    60.1010 no         1 SLN       0.663100
     30 ON1         44.5950    44.3280    59.8030 o          1 SLN      -0.369500
     31 ON2         46.6580    44.3610    60.3250 o          1 SLN      -0.369500
     32 CB3         46.7680    47.0010    60.4870 cd         1 SLN      -0.121600
     33 CB4         46.8370    48.3670    60.6000 cd         1 SLN       0.295900
     34 NA1         48.0970    48.9140    60.9000 ne         1 SLN      -0.370400
     35 NA2         48.2020    50.1240    61.0120 n1         1 SLN       0.118700
     36 NA3         48.4140    51.2190    61.1370 n1         1 SLN      -0.163000
     37 CB5         45.6640    49.1120    60.4100 cd         1 SLN      -0.222600
     38 CB6         44.4790    48.4930    60.1170 cc         1 SLN      -0.370600
     39 H21         40.6650    45.8020    60.2010 h1         1 SLN       0.065700
     40 H1AA        38.6760    46.6420    58.8600 h1         1 SLN       0.078700
     41 H2AA        39.6000    48.1000    58.5010 h1         1 SLN       0.078700
     42 HNB         38.6240    47.2090    61.1350 hn         1 SLN       0.315500
     43 HCA         37.9910    48.6280    62.5390 hc         1 SLN       0.062700
     44 HCB1        37.6250    51.1250    61.3560 hc         1 SLN       0.046200
     45 HCB2        37.0810    50.6930    62.9600 hc         1 SLN       0.046200
     46 H1CC        38.1090    51.6790    64.9970 hc         1 SLN       0.035533
     47 H2CC        39.0220    53.1610    64.6800 hc         1 SLN       0.035533
     48 H3CC        37.4330    52.9340    63.9740 hc         1 SLN       0.035533
     49 H4CC        38.4740    53.5500    61.7910 hc         1 SLN       0.035533
     50 H5CC        39.7130    52.5150    61.0720 hc         1 SLN       0.035533
     51 H6CC        40.1080    53.5540    62.4490 hc         1 SLN       0.035533
     52 HOR         40.5290    51.4110    65.0330 ho         1 SLN       0.388000
     53 H1CE        39.0370    48.0460    64.7180 hc         1 SLN       0.046533
     54 H2CE        38.2150    49.5860    64.8900 hc         1 SLN       0.046533
     55 H3CE        39.8510    49.3700    65.5250 hc         1 SLN       0.046533
     56 H4CE        41.5410    48.9840    62.1830 hc         1 SLN       0.046533
     57 H5CE        40.7520    47.6210    62.9940 hc         1 SLN       0.046533
     58 H6CE        41.7160    48.7650    63.9190 hc         1 SLN       0.046533
     59 H11         42.0760    47.9930    58.6260 h1         1 SLN       0.030200
     60 H12         41.8020    47.9930    60.3630 h1         1 SLN       0.030200
     61 HN1         43.1050    45.5600    59.5310 hn         1 SLN       0.437000
     62 HB3         47.6640    46.4160    60.6300 ha         1 SLN       0.212000
     63 HB5         45.6690    50.1930    60.4860 ha         1 SLN       0.159000
     64 HB6         43.6080    49.1150    59.9740 ha         1 SLN       0.196000
@<TRIPOS>BOND
     1     1     2 1   
     2     2     3 1   
     3     2     4 1   
     4     2     5 1   
     5     5     6 1   
     6     6     7 1   
     7     6     8 1   
     8     6     9 1   
     9     9    10 1   
    10    10    11 1   
    11    10    25 1   
    12    10    39 1   
    13    11    12 1   
    14    11    40 1   
    15    11    41 1   
    16    12    13 1   
    17    12    42 1   
    18    13    14 2   
    19    13    15 1   
    20    15    16 1   
    21    15    22 1   
    22    15    43 1   
    23    16    17 1   
    24    16    44 1   
    25    16    45 1   
    26    17    18 1   
    27    17    19 1   
    28    17    20 1   
    29    18    46 1   
    30    18    47 1   
    31    18    48 1   
    32    19    49 1   
    33    19    50 1   
    34    19    51 1   
    35    20    21 1   
    36    20    22 1   
    37    21    52 1   
    38    22    23 1   
    39    22    24 1   
    40    23    53 1   
    41    23    54 1   
    42    23    55 1   
    43    24    56 1   
    44    24    57 1   
    45    24    58 1   
    46    25    26 1   
    47    25    59 1   
    48    25    60 1   
    49    26    27 2   
    50    26    61 1   
    51    27    28 1   
    52    27    38 1   
    53    28    29 1   
    54    28    32 2   
    55    29    30 1   
    56    29    31 1   
    57    32    33 1   
    58    32    62 1   
    59    33    34 2   
    60    33    37 1   
    61    34    35 1   
    62    35    36 3   
    63    37    38 2   
    64    37    63 1   
    65    38    64 1   
@<TRIPOS>SUBSTRUCTURE
     1 SLN         1 TEMP              0 ****  ****    0 ROOT
