@<TRIPOS>MOLECULE
SMC
   16    15     1     0     0
SMALL
abcg2


@<TRIPOS>ATOM
      1 N           89.4040    16.1700    31.9520 n8         1 SMC      -1.004200
      2 CA          89.8320    17.4210    31.3480 c3         1 SMC       0.024500
      3 CB          89.8740    17.3020    29.8310 c3         1 SMC       0.132600
      4 SG          91.0590    16.0160    29.3290 ss         1 SMC      -0.521000
      5 CS          91.0880    16.3010    27.5460 c3         1 SMC       0.049900
      6 C           88.9040    18.5890    31.7930 c          1 SMC       0.725000
      7 O           88.8090    19.5580    31.0180 o          1 SMC      -0.725500
      8 OXT         88.3620    18.4630    32.9080 o          1 SMC      -0.725500
      9 H           89.0210    16.3920    32.8620 hn         1 SMC       0.389500
     10 H2          90.1950    15.5590    32.1090 hn         1 SMC       0.389500
     11 HA          90.8450    17.7130    31.6770 h1         1 SMC       0.009700
     12 HB2         88.8850    17.0460    29.4440 h1         1 SMC       0.063200
     13 HB3         90.1860    18.2450    29.3850 h1         1 SMC       0.063200
     14 HCS1        91.7700    15.5770    27.1030 h1         1 SMC       0.042700
     15 HCS2        90.1020    16.1600    27.1060 h1         1 SMC       0.042700
     16 HCS3        91.4450    17.3050    27.3120 h1         1 SMC       0.042700
@<TRIPOS>BOND
     1     1     2 1   
     2     1     9 1   
     3     1    10 1   
     4     2     3 1   
     5     2     6 1   
     6     2    11 1   
     7     3     4 1   
     8     3    12 1   
     9     3    13 1   
    10     4     5 1   
    11     5    14 1   
    12     5    15 1   
    13     5    16 1   
    14     6     7 1   
    15     6     8 1   
@<TRIPOS>SUBSTRUCTURE
     1 SMC         1 TEMP              0 ****  ****    0 ROOT
