@<TRIPOS>MOLECULE
SRA
   37    39     1     0     0
SMALL
abcg2


@<TRIPOS>ATOM
      1 P           -3.0190    -1.7720     2.6860 p5         1 SRA       1.184200
      2 OP1         -2.6140    -0.8610     3.9290 oh         1 SRA      -0.508900
      3 S2P         -4.1230    -0.8400     1.4210 s          1 SRA      -0.487000
      4 OP3         -3.6400    -3.0510     3.4210 oh         1 SRA      -0.508900
      5 O5          -1.6740    -2.2610     1.9710 os         1 SRA      -0.385400
      6 C5          -0.6490    -3.0390     2.5920 c3         1 SRA       0.000600
      7 C4           0.3230    -3.5020     1.5360 c5         1 SRA       0.165300
      8 O4          -0.3120    -4.4060     0.6370 os         1 SRA      -0.448000
      9 C3           0.9110    -2.4130     0.6430 c5         1 SRA       0.152300
     10 O3           1.9380    -1.7530     1.3140 oh         1 SRA      -0.694000
     11 C2           1.3220    -3.2240    -0.5880 c5         1 SRA       0.098300
     12 C1           0.1640    -4.2350    -0.6630 c5         1 SRA       0.293300
     13 N9          -0.9220    -3.7680    -1.5180 na         1 SRA      -0.314300
     14 C8          -2.1870    -3.3710    -1.1770 cc         1 SRA       0.429700
     15 N7          -2.9250    -3.0650    -2.2050 nd         1 SRA      -0.534100
     16 C7          -2.1110    -3.2740    -3.2860 ca         1 SRA      -0.093600
     17 C6          -2.3010    -3.1410    -4.6740 ca         1 SRA       0.455900
     18 N6          -3.4520    -2.7310    -5.2100 nv         1 SRA      -1.061900
     19 N1          -1.2760    -3.4440    -5.4790 nb         1 SRA      -0.304000
     20 C10         -0.1300    -3.8570    -4.9440 ca         1 SRA       0.183900
     21 N3           0.1690    -4.0220    -3.6670 nb         1 SRA      -0.244000
     22 C9          -0.8610    -3.7150    -2.8800 ca         1 SRA       0.113500
     23 O2           2.5280    -3.8740    -0.3050 oh         1 SRA      -0.696000
     24 HOP1        -2.1910    -1.3030     4.6800 ho         1 SRA       0.286500
     25 HOP3        -4.0310    -3.7070     2.8260 ho         1 SRA       0.286500
     26 H5          -1.0750    -3.9010     3.1110 h1         1 SRA       0.053700
     27 H5'         -0.1060    -2.4350     3.3230 h1         1 SRA       0.053700
     28 H4           1.1350    -4.0160     2.0660 h1         1 SRA       0.091700
     29 H3           0.1170    -1.7210     0.3370 h1         1 SRA       0.075700
     30 HO3          2.1360    -0.9320     0.8530 ho         1 SRA       0.521000
     31 H2           1.3850    -2.6150    -1.4970 h1         1 SRA       0.082700
     32 H1           0.5020    -5.1910    -1.0740 h2         1 SRA       0.100700
     33 H8          -2.5160    -3.3290    -0.1530 h5         1 SRA       0.068800
     34 HN61        -3.5510    -2.6580    -6.2080 hn         1 SRA       0.510000
     35 HN62        -4.2440    -2.5060    -4.6330 hn         1 SRA       0.510000
     36 H6           0.6590    -4.0860    -5.6540 h5         1 SRA       0.044100
     37 HO2          2.8000    -4.3700    -1.0840 ho         1 SRA       0.517000
@<TRIPOS>BOND
     1     1     2 1   
     2     1     3 2   
     3     1     4 1   
     4     1     5 1   
     5     2    24 1   
     6     4    25 1   
     7     5     6 1   
     8     6     7 1   
     9     6    26 1   
    10     6    27 1   
    11     7     8 1   
    12     7     9 1   
    13     7    28 1   
    14     8    12 1   
    15     9    10 1   
    16     9    11 1   
    17     9    29 1   
    18    10    30 1   
    19    11    12 1   
    20    11    23 1   
    21    11    31 1   
    22    12    13 1   
    23    12    32 1   
    24    13    14 1   
    25    13    22 1   
    26    14    15 2   
    27    14    33 1   
    28    15    16 1   
    29    16    17 ar  
    30    16    22 ar  
    31    17    18 1   
    32    17    19 ar  
    33    18    34 1   
    34    18    35 1   
    35    19    20 ar  
    36    20    21 ar  
    37    20    36 1   
    38    21    22 ar  
    39    23    37 1   
@<TRIPOS>SUBSTRUCTURE
     1 SRA         1 TEMP              0 ****  ****    0 ROOT
