@<TRIPOS>MOLECULE
SRP
   47    49     1     0     0
SMALL
abcg2


@<TRIPOS>ATOM
      1 PA          71.5440    33.3280    66.8050 p5         1 SRP       1.399800
      2 O1A         70.3530    34.2060    66.6650 o          1 SRP      -0.791500
      3 O2A         72.6250    33.2370    65.7830 o          1 SRP      -0.791500
      4 O3A         72.4070    33.7340    68.2160 os         1 SRP      -0.567500
      5 O5          70.9900    31.8520    67.2170 os         1 SRP      -0.600400
      6 C5          71.8290    30.7200    67.3180 c3         1 SRP       0.230600
      7 C4          71.5550    29.7100    66.2260 c5         1 SRP       0.132300
      8 O4          70.1820    29.3230    66.2270 os         1 SRP      -0.431000
      9 C3          71.8270    30.1660    64.7950 c5         1 SRP       0.157300
     10 O3          73.1900    30.0990    64.5060 oh         1 SRP      -0.696000
     11 C2          70.9400    29.2060    64.0010 c5         1 SRP       0.093300
     12 O2          71.5800    27.9630    63.9290 oh         1 SRP      -0.695000
     13 C1          69.7160    29.1350    64.9270 c5         1 SRP       0.289300
     14 N9          68.7320    30.1640    64.6000 na         1 SRP      -0.307300
     15 C8          68.3960    31.2960    65.2910 cc         1 SRP       0.457700
     16 N7          67.4500    31.9860    64.7200 nd         1 SRP      -0.556100
     17 C7          67.1400    31.2750    63.5920 ca         1 SRP      -0.081600
     18 C6          66.2140    31.4760    62.5520 ca         1 SRP       0.439900
     19 N6          65.3820    32.5210    62.5170 nv         1 SRP      -1.069900
     20 N1          66.1640    30.5670    61.5720 nb         1 SRP      -0.317000
     21 C10         66.9810    29.5170    61.6180 ca         1 SRP       0.159900
     22 N3          67.8860    29.2190    62.5340 nb         1 SRP      -0.232000
     23 C9          67.9250    30.1360    63.5000 ca         1 SRP       0.094500
     24 O           70.7260    33.6280    69.6960 o          1 SRP      -0.469000
     25 C           71.8910    33.7730    69.4400 c          1 SRP       0.667100
     26 CA          72.9740    34.0000    70.4840 c3         1 SRP       0.083500
     27 N           72.3670    34.2310    71.7770 n8         1 SRP      -0.978200
     28 CB          73.9690    32.8400    70.4300 c3         1 SRP       0.130600
     29 OG          73.2430    31.6430    70.5910 oh         1 SRP      -0.659000
     30 H5'1        72.8920    30.9730    67.2720 h1         1 SRP       0.041700
     31 H5'2        71.6530    30.2590    68.2930 h1         1 SRP       0.041700
     32 H4          72.1820    28.8360    66.4470 h1         1 SRP       0.061700
     33 H3          71.4380    31.1790    64.6520 h1         1 SRP       0.084700
     34 H2          73.4210    30.8390    63.9380 ho         1 SRP       0.524000
     35 H7          70.6780    29.5920    63.0090 h1         1 SRP       0.068700
     36 H1          71.0330    27.3670    63.4060 ho         1 SRP       0.498000
     37 H9          69.2040    28.1710    64.8440 h2         1 SRP       0.082700
     38 H8          68.8880    31.5650    66.2110 h5         1 SRP       0.123800
     39 HN61        64.8030    32.6750    61.7090 hn         1 SRP       0.500000
     40 HN62        65.4700    33.2690    63.1830 hn         1 SRP       0.500000
     41 H6          66.8880    28.8190    60.7920 h5         1 SRP       0.030100
     42 HA          73.5230    34.9040    70.1990 h1         1 SRP       0.079700
     43 HN1         73.0930    34.4680    72.4420 hn         1 SRP       0.393000
     44 HN2         71.9390    33.3790    72.1170 hn         1 SRP       0.393000
     45 HB1         74.5220    32.8590    69.4850 h1         1 SRP       0.023200
     46 HB2         74.7010    32.9860    71.2340 h1         1 SRP       0.023200
     47 HOG         73.8530    30.9010    70.5410 ho         1 SRP       0.434000
@<TRIPOS>BOND
     1     1     2 1   
     2     1     3 1   
     3     1     4 1   
     4     1     5 1   
     5     4    25 1   
     6     5     6 1   
     7     6     7 1   
     8     6    30 1   
     9     6    31 1   
    10     7     8 1   
    11     7     9 1   
    12     7    32 1   
    13     8    13 1   
    14     9    10 1   
    15     9    11 1   
    16     9    33 1   
    17    10    34 1   
    18    11    12 1   
    19    11    13 1   
    20    11    35 1   
    21    12    36 1   
    22    13    14 1   
    23    13    37 1   
    24    14    15 1   
    25    14    23 1   
    26    15    16 2   
    27    15    38 1   
    28    16    17 1   
    29    17    18 ar  
    30    17    23 ar  
    31    18    19 1   
    32    18    20 ar  
    33    19    39 1   
    34    19    40 1   
    35    20    21 ar  
    36    21    22 ar  
    37    21    41 1   
    38    22    23 ar  
    39    24    25 2   
    40    25    26 1   
    41    26    27 1   
    42    26    28 1   
    43    26    42 1   
    44    27    43 1   
    45    27    44 1   
    46    28    29 1   
    47    28    45 1   
    48    28    46 1   
    49    29    47 1   
@<TRIPOS>SUBSTRUCTURE
     1 SRP         1 TEMP              0 ****  ****    0 ROOT
