@<TRIPOS>MOLECULE
ST9
  133   135     1     0     0
SMALL
abcg2


@<TRIPOS>ATOM
      1 C1          -7.8450    -2.5500    -0.0510 c          1 ST9       0.613700
      2 C2          -9.2240    -2.5390    -0.6570 c3         1 ST9      -0.168400
      3 O2          -7.3380    -1.6160     0.5140 o          1 ST9      -0.498100
      4 C3         -10.2230    -1.6640     0.0910 c3         1 ST9      -0.067400
      5 C4         -11.5380    -1.5430    -0.6680 c3         1 ST9      -0.075400
      6 C5         -12.5780    -0.7080     0.0670 c3         1 ST9      -0.074400
      7 C6         -13.8600    -0.5210    -0.7350 c3         1 ST9      -0.074400
      8 C7         -14.9180     0.2990    -0.0070 c3         1 ST9      -0.074400
      9 C8         -16.1810     0.5110    -0.8320 c3         1 ST9      -0.074400
     10 C9         -17.2470     1.3240    -0.1110 c3         1 ST9      -0.074400
     11 C10        -18.5000     1.5460    -0.9490 c3         1 ST9      -0.074400
     12 C11        -19.5720     2.3570    -0.2320 c3         1 ST9      -0.074400
     13 C12        -20.8200     2.5820    -1.0780 c3         1 ST9      -0.074400
     14 C13        -21.8950     3.3910    -0.3650 c3         1 ST9      -0.074400
     15 C14        -23.1390     3.6170    -1.2150 c3         1 ST9      -0.074400
     16 C15        -24.2170     4.4270    -0.5050 c3         1 ST9      -0.074400
     17 C16        -25.4590     4.6520    -1.3580 c3         1 ST9      -0.075400
     18 C17        -26.5380     5.4640    -0.6530 c3         1 ST9      -0.075400
     19 C18        -27.7720     5.6820    -1.5180 c3         1 ST9      -0.088100
     20 N1A         12.6310     3.9750     2.0030 nb         1 ST9      -0.356000
     21 O1A          9.2720    -0.5430    -1.4380 o          1 ST9      -0.869000
     22 P1A          7.9870    -0.8560    -2.1360 p5         1 ST9       1.471800
     23 C1B          7.9270     3.5420     0.0870 c5         1 ST9       0.272300
     24 S1P         -7.0010    -4.0850    -0.3070 ss         1 ST9      -0.426600
     25 C2A         11.8430     4.8460     1.3820 ca         1 ST9       0.115900
     26 O2A          7.9910    -1.3670    -3.5440 o          1 ST9      -0.869000
     27 P2A          7.1520    -2.1750     0.3510 p5         1 ST9       1.472800
     28 C2B          8.3520     4.3220    -1.1750 c5         1 ST9       0.118300
     29 O2B          8.7070     5.6470    -0.9390 oh         1 ST9      -0.690000
     30 C2P         -5.3350    -3.6950     0.2990 c3         1 ST9       0.054600
     31 N3A         10.6340     4.6410     0.8850 nb         1 ST9      -0.201000
     32 O3A          7.0830    -1.9100    -1.2670 os         1 ST9      -0.694800
     33 C3B          7.1090     4.1800    -2.0530 c5         1 ST9       0.236300
     34 O3B          6.1650     5.1220    -1.6630 os         1 ST9      -0.564400
     35 P3B          4.9000     5.4920    -2.7610 p5         1 ST9       1.280900
     36 C3P         -4.4700    -4.9470     0.1740 c3         1 ST9       0.119000
     37 C4A         10.2230     3.3820     1.0660 ca         1 ST9       0.076500
     38 O4A          6.9520    -0.9100     1.1270 o          1 ST9      -0.857000
     39 C4B          6.6760     2.7570    -1.6960 c5         1 ST9       0.099300
     40 O4B          6.9480     2.6370    -0.2930 os         1 ST9      -0.413000
     41 N4P         -3.0870    -4.6750     0.4830 ns         1 ST9      -0.512900
     42 C5A         10.9370     2.3690     1.6850 ca         1 ST9      -0.067600
     43 O5A          8.2850    -3.0960     0.6770 o          1 ST9      -0.857000
     44 C5B          7.3980     1.6800    -2.4800 c3         1 ST9       0.207600
     45 O5B          6.9550     0.4180    -2.0280 os         1 ST9      -0.592400
     46 C5P         -2.6060    -4.5860     1.7360 c          1 ST9       0.608100
     47 O5P         -3.2980    -4.7800     2.7260 o          1 ST9      -0.628100
     48 C6A         12.2100     2.7140     2.1710 ca         1 ST9       0.411900
     49 N6A         13.0050     1.8410     2.7920 nv         1 ST9      -1.098900
     50 O6A          5.7440    -3.0320     0.3460 os         1 ST9      -0.574400
     51 C6P         -1.1420    -4.2150     1.8220 c3         1 ST9      -0.188400
     52 N7A         10.2180     1.2040     1.6840 nc         1 ST9      -0.603100
     53 O7A          4.0750     4.2120    -2.8680 o          1 ST9      -0.924167
     54 C7P         -0.5190    -4.5700     3.1670 c3         1 ST9       0.124000
     55 C8A          9.1000     1.5050     1.0820 cd         1 ST9       0.523700
     56 O8A          4.2210     6.6350    -2.0230 o          1 ST9      -0.924167
     57 N8P          0.8800    -4.2130     3.2150 ns         1 ST9      -0.509900
     58 N9A          9.0470     2.8150     0.6860 na         1 ST9      -0.274300
     59 O9A          5.6140     5.8800    -4.0510 o          1 ST9      -0.924167
     60 C9P          1.8460    -4.9900     2.7110 c          1 ST9       0.582100
     61 O9P          1.6280    -6.0940     2.2270 o          1 ST9      -0.640100
     62 CAP          3.2680    -4.4230     2.7720 c3         1 ST9       0.096300
     63 OAP          3.3770    -3.4350     3.7730 oh         1 ST9      -0.686000
     64 CBP          3.7720    -3.9420     1.3850 c3         1 ST9      -0.076000
     65 CCP          5.2200    -3.4570     1.5830 c3         1 ST9       0.236600
     66 CDP          3.7790    -5.0950     0.3790 c3         1 ST9      -0.078600
     67 CEP          2.8980    -2.8070     0.8430 c3         1 ST9      -0.078600
     68 H2          -9.0950    -2.1670    -1.6810 hc         1 ST9       0.067700
     69 H2A         -9.6010    -3.5600    -0.7570 hc         1 ST9       0.067700
     70 H3         -10.4050    -2.0850     1.0840 hc         1 ST9       0.053700
     71 H3A         -9.8000    -0.6690     0.2460 hc         1 ST9       0.053700
     72 H4         -11.3430    -1.0980    -1.6500 hc         1 ST9       0.036200
     73 H4A        -11.9460    -2.5400    -0.8630 hc         1 ST9       0.036200
     74 H5         -12.8120    -1.1790     1.0270 hc         1 ST9       0.040700
     75 H5A        -12.1550     0.2740     0.3060 hc         1 ST9       0.040700
     76 H6         -13.6210    -0.0370    -1.6880 hc         1 ST9       0.035700
     77 H6A        -14.2760    -1.5020    -0.9910 hc         1 ST9       0.035700
     78 H7         -15.1770    -0.1970     0.9350 hc         1 ST9       0.037700
     79 H7A        -14.4970     1.2720     0.2700 hc         1 ST9       0.037700
     80 H8         -15.9180     1.0110    -1.7710 hc         1 ST9       0.036200
     81 H8A        -16.5970    -0.4620    -1.1160 hc         1 ST9       0.036200
     82 H9         -17.5190     0.8200     0.8230 hc         1 ST9       0.037700
     83 H9A        -16.8290     2.2940     0.1810 hc         1 ST9       0.037700
     84 H10        -18.2270     2.0530    -1.8810 hc         1 ST9       0.036200
     85 H10A       -18.9160     0.5760    -1.2440 hc         1 ST9       0.036200
     86 H11        -19.8500     1.8480     0.6980 hc         1 ST9       0.037200
     87 H11A       -19.1560     3.3260     0.0660 hc         1 ST9       0.037200
     88 H12        -20.5410     3.0910    -2.0070 hc         1 ST9       0.036200
     89 H12A       -21.2340     1.6130    -1.3780 hc         1 ST9       0.036200
     90 H13        -22.1760     2.8810     0.5640 hc         1 ST9       0.037200
     91 H13A       -21.4810     4.3600    -0.0630 hc         1 ST9       0.037200
     92 H14        -22.8570     4.1260    -2.1430 hc         1 ST9       0.036700
     93 H14A       -23.5530     2.6480    -1.5160 hc         1 ST9       0.036700
     94 H15        -24.5010     3.9170     0.4230 hc         1 ST9       0.036700
     95 H15A       -23.8030     5.3950    -0.2030 hc         1 ST9       0.036700
     96 H16        -25.1740     5.1600    -2.2870 hc         1 ST9       0.036700
     97 H16A       -25.8730     3.6840    -1.6600 hc         1 ST9       0.036700
     98 H17        -26.8230     4.9570     0.2740 hc         1 ST9       0.036700
     99 H17A       -26.1240     6.4320    -0.3530 hc         1 ST9       0.036700
    100 H18        -28.5320     6.2660    -0.9980 hc         1 ST9       0.029700
    101 H18A       -27.5180     6.2160    -2.4360 hc         1 ST9       0.029700
    102 H18B       -28.2240     4.7310    -1.8070 hc         1 ST9       0.029700
    103 H1B          7.5370     4.2280     0.8480 h2         1 ST9       0.073700
    104 H2AA        12.2420     5.8480     1.2710 h5         1 ST9       0.006100
    105 H2B          9.1730     3.7690    -1.6560 h1         1 ST9       0.015700
    106 HO2B         9.4780     5.6150    -0.3430 ho         1 ST9       0.490000
    107 H2P         -4.9220    -2.8850    -0.3020 h1         1 ST9       0.087200
    108 H2PA        -5.3940    -3.3690     1.3360 h1         1 ST9       0.087200
    109 H3B          7.3600     4.2720    -3.1180 h1         1 ST9       0.053700
    110 H3P         -4.8460    -5.7340     0.8290 h1         1 ST9       0.056200
    111 H3PA        -4.5050    -5.3310    -0.8450 h1         1 ST9       0.056200
    112 H4B          5.5990     2.6500    -1.8370 h1         1 ST9       0.150700
    113 HN4P        -2.4710    -4.4710    -0.2860 hn         1 ST9       0.327500
    114 H5B          7.1690     1.8130    -3.5440 h1         1 ST9       0.010200
    115 H5BA         8.4830     1.7790    -2.3690 h1         1 ST9       0.010200
    116 HN6A        13.9180     2.1190     3.1100 hn         1 ST9       0.483000
    117 HN6B        12.7270     0.8840     2.9140 hn         1 ST9       0.483000
    118 H6P         -0.5900    -4.7020     1.0140 hc         1 ST9       0.081200
    119 H6PA        -1.0530    -3.1380     1.6490 hc         1 ST9       0.081200
    120 H7P         -1.0240    -4.0400     3.9720 h1         1 ST9       0.051200
    121 H7PA        -0.6250    -5.6360     3.3660 h1         1 ST9       0.051200
    122 H8AA         8.2900     0.8110     0.8990 h5         1 ST9       0.166800
    123 HN8P         1.1350    -3.3390     3.6440 hn         1 ST9       0.330500
    124 HAP          3.9040    -5.2610     3.0830 h1         1 ST9       0.081700
    125 HOAP         3.3590    -2.5570     3.3790 ho         1 ST9       0.470000
    126 HCP          5.8160    -4.2820     1.9960 h1         1 ST9       0.011700
    127 HCPA         5.2580    -2.6350     2.3050 h1         1 ST9       0.011700
    128 HDP          2.7750    -5.4210     0.1200 hc         1 ST9       0.038367
    129 HDPA         4.2660    -4.7760    -0.5410 hc         1 ST9       0.038367
    130 HDPB         4.3240    -5.9600     0.7640 hc         1 ST9       0.038367
    131 HEP          2.8520    -1.9400     1.5070 hc         1 ST9       0.038367
    132 HEPA         3.2900    -2.4500    -0.1080 hc         1 ST9       0.038367
    133 HEPB         1.8750    -3.1420     0.6660 hc         1 ST9       0.038367
@<TRIPOS>BOND
     1     1     2 1   
     2     1     3 2   
     3     1    24 1   
     4     2     4 1   
     5     2    68 1   
     6     2    69 1   
     7     4     5 1   
     8     4    70 1   
     9     4    71 1   
    10     5     6 1   
    11     5    72 1   
    12     5    73 1   
    13     6     7 1   
    14     6    74 1   
    15     6    75 1   
    16     7     8 1   
    17     7    76 1   
    18     7    77 1   
    19     8     9 1   
    20     8    78 1   
    21     8    79 1   
    22     9    10 1   
    23     9    80 1   
    24     9    81 1   
    25    10    11 1   
    26    10    82 1   
    27    10    83 1   
    28    11    12 1   
    29    11    84 1   
    30    11    85 1   
    31    12    13 1   
    32    12    86 1   
    33    12    87 1   
    34    13    14 1   
    35    13    88 1   
    36    13    89 1   
    37    14    15 1   
    38    14    90 1   
    39    14    91 1   
    40    15    16 1   
    41    15    92 1   
    42    15    93 1   
    43    16    17 1   
    44    16    94 1   
    45    16    95 1   
    46    17    18 1   
    47    17    96 1   
    48    17    97 1   
    49    18    19 1   
    50    18    98 1   
    51    18    99 1   
    52    19   100 1   
    53    19   101 1   
    54    19   102 1   
    55    20    25 ar  
    56    20    48 ar  
    57    21    22 1   
    58    22    26 1   
    59    22    32 1   
    60    22    45 1   
    61    23    28 1   
    62    23    40 1   
    63    23    58 1   
    64    23   103 1   
    65    24    30 1   
    66    25    31 ar  
    67    25   104 1   
    68    27    32 1   
    69    27    38 1   
    70    27    43 1   
    71    27    50 1   
    72    28    29 1   
    73    28    33 1   
    74    28   105 1   
    75    29   106 1   
    76    30    36 1   
    77    30   107 1   
    78    30   108 1   
    79    31    37 ar  
    80    33    34 1   
    81    33    39 1   
    82    33   109 1   
    83    34    35 1   
    84    35    53 1   
    85    35    56 1   
    86    35    59 1   
    87    36    41 1   
    88    36   110 1   
    89    36   111 1   
    90    37    42 ar  
    91    37    58 1   
    92    39    40 1   
    93    39    44 1   
    94    39   112 1   
    95    41    46 1   
    96    41   113 1   
    97    42    48 ar  
    98    42    52 1   
    99    44    45 1   
   100    44   114 1   
   101    44   115 1   
   102    46    47 2   
   103    46    51 1   
   104    48    49 1   
   105    49   116 1   
   106    49   117 1   
   107    50    65 1   
   108    51    54 1   
   109    51   118 1   
   110    51   119 1   
   111    52    55 2   
   112    54    57 1   
   113    54   120 1   
   114    54   121 1   
   115    55    58 1   
   116    55   122 1   
   117    57    60 1   
   118    57   123 1   
   119    60    61 2   
   120    60    62 1   
   121    62    63 1   
   122    62    64 1   
   123    62   124 1   
   124    63   125 1   
   125    64    65 1   
   126    64    66 1   
   127    64    67 1   
   128    65   126 1   
   129    65   127 1   
   130    66   128 1   
   131    66   129 1   
   132    66   130 1   
   133    67   131 1   
   134    67   132 1   
   135    67   133 1   
@<TRIPOS>SUBSTRUCTURE
     1 ST9         1 TEMP              0 ****  ****    0 ROOT
