@<TRIPOS>MOLECULE
SVZ
   27    26     1     0     0
SMALL
abcg2


@<TRIPOS>ATOM
      1 N           25.9830    12.5730    14.4300 n8         1 SVZ      -1.001200
      2 CA          26.9460    12.7010    13.3420 c3         1 SVZ       0.002500
      3 C           27.9990    11.5750    13.4500 c          1 SVZ       0.750000
      4 O           28.2120    10.8820    12.4380 o          1 SVZ      -0.746500
      5 CB          27.6410    14.0600    13.3610 c3         1 SVZ       0.223600
      6 OG          28.5810    14.1290    12.3090 os         1 SVZ      -0.603400
      7 O4          30.8250    14.7330    13.3990 o          1 SVZ      -0.845000
      8 P1          29.8090    15.2440    12.4160 p5         1 SVZ       1.374700
      9 O2          29.1740    16.5950    12.5980 o          1 SVZ      -0.845000
     10 N3          30.4770    15.1420    10.8710 n7         1 SVZ      -0.959500
     11 C5          29.7450    15.5080     9.6680 c3         1 SVZ       0.244500
     12 C7          30.6600    16.2480     8.6970 c3         1 SVZ      -0.101600
     13 C6          29.0950    14.3070     8.9850 c3         1 SVZ      -0.101600
     14 OXT         28.5570    11.4730    14.5640 o          1 SVZ      -0.746500
     15 HN1         26.4950    12.5630    15.3040 hn         1 SVZ       0.364000
     16 HN2         25.3840    13.3900    14.4590 hn         1 SVZ       0.364000
     17 HA          26.4050    12.6000    12.3950 h1         1 SVZ       0.038700
     18 HBC1        28.1190    14.1870    14.3410 h1         1 SVZ      -0.007300
     19 HBC2        26.8920    14.8580    13.2630 h1         1 SVZ      -0.007300
     20 H3          31.1090    14.3650    10.7290 hn         1 SVZ       0.434000
     21 H5          28.9550    16.1990     9.9740 h1         1 SVZ       0.059700
     22 H7C1        31.4810    15.6050     8.3690 hc         1 SVZ       0.018367
     23 H7C2        31.0930    17.1320     9.1650 hc         1 SVZ       0.018367
     24 H7C3        30.1160    16.5670     7.8070 hc         1 SVZ       0.018367
     25 H6C1        28.4050    13.7990     9.6580 hc         1 SVZ       0.018367
     26 H6C2        29.8550    13.5870     8.6710 hc         1 SVZ       0.018367
     27 H6C3        28.5410    14.6110     8.0950 hc         1 SVZ       0.018367
@<TRIPOS>BOND
     1     1     2 1   
     2     1    15 1   
     3     1    16 1   
     4     2     3 1   
     5     2     5 1   
     6     2    17 1   
     7     3     4 1   
     8     3    14 1   
     9     5     6 1   
    10     5    18 1   
    11     5    19 1   
    12     6     8 1   
    13     7     8 1   
    14     8     9 1   
    15     8    10 1   
    16    10    11 1   
    17    10    20 1   
    18    11    12 1   
    19    11    13 1   
    20    11    21 1   
    21    12    22 1   
    22    12    23 1   
    23    12    24 1   
    24    13    25 1   
    25    13    26 1   
    26    13    27 1   
@<TRIPOS>SUBSTRUCTURE
     1 SVZ         1 TEMP              0 ****  ****    0 ROOT
