@<TRIPOS>MOLECULE
VBA
   58    61     1     0     0
SMALL
abcg2


@<TRIPOS>ATOM
      1 C4          34.6600    -2.5380    26.1250 c5         1 VBA      -0.091400
      2 C5          33.7250    -2.8680    24.9390 c5         1 VBA      -0.081700
      3 C8          32.2830    -2.8850    25.3990 c3         1 VBA       0.207600
      4 C10         37.7890    -3.4770    27.4730 ca         1 VBA       0.428900
      5 C15         38.4140    -3.7250    28.7370 ca         1 VBA      -0.364600
      6 C17         38.4960    -4.9000    30.9850 cc         1 VBA       0.166500
      7 C21         39.9400    -5.8970    32.3010 cd         1 VBA      -0.177000
      8 C22         39.7530    -5.5360    30.9910 cc         1 VBA      -0.194000
      9 C24         37.6910    -6.8720    34.6170 ca         1 VBA      -0.124300
     10 C26         37.4420    -9.2530    34.9120 ca         1 VBA      -0.112500
     11 C28         35.4980    -7.8400    34.8830 ca         1 VBA      -0.112500
     12 C25         38.2510    -8.1410    34.7270 ca         1 VBA      -0.081500
     13 C27         36.0630    -9.1040    34.9900 ca         1 VBA      -0.093000
     14 C29         36.3100    -6.7290    34.6950 ca         1 VBA      -0.081500
     15 N20         38.8530    -5.4730    32.9770 na         1 VBA       0.145800
     16 N19         37.9650    -4.8880    32.2020 nd         1 VBA      -0.466800
     17 C16         37.7090    -4.3540    29.8590 c          1 VBA       0.546200
     18 O18         36.4900    -4.4500    29.8840 o          1 VBA      -0.551100
     19 C14         39.7190    -3.2660    28.8560 ca         1 VBA       0.181900
     20 N13         40.4050    -2.6990    27.8730 nb         1 VBA      -0.229000
     21 C12         39.7490    -2.5960    26.7220 ca         1 VBA       0.188900
     22 N11         38.5070    -2.9360    26.4760 nb         1 VBA      -0.275000
     23 N9          36.5110    -3.7700    27.2400 nu         1 VBA      -0.912100
     24 C3          35.8070    -3.5390    26.0040 c5         1 VBA       0.189500
     25 C2          35.0900    -4.7840    25.4820 c5         1 VBA       0.116300
     26 O7          35.9160    -5.8000    24.9930 oh         1 VBA      -0.651000
     27 C1          34.2080    -4.2170    24.3700 c5         1 VBA       0.188300
     28 O6          34.9560    -3.9510    23.2060 oh         1 VBA      -0.656000
     29 O30         31.4260    -3.0260    24.2460 os         1 VBA      -0.587700
     30 S31         30.2080    -4.0610    24.2730 s6         1 VBA       1.399800
     31 O33         29.6430    -3.9400    22.9530 o          1 VBA      -0.535500
     32 O34         30.6800    -5.3370    24.7640 o          1 VBA      -0.535500
     33 N32         29.1110    -3.5140    25.3480 n8         1 VBA      -1.045100
     34 H1          35.0020    -1.5050    26.1140 hc         1 VBA       0.054700
     35 H2          34.1430    -2.6930    27.0780 hc         1 VBA       0.054700
     36 H3          33.8290    -2.1090    24.1600 hc         1 VBA       0.103700
     37 H4          32.0220    -1.9460    25.8890 h1         1 VBA       0.046700
     38 H5          32.1200    -3.6970    26.1140 h1         1 VBA       0.046700
     39 H6          40.7500    -6.4100    32.7940 h4         1 VBA       0.158000
     40 H7          40.4150    -5.7280    30.1630 ha         1 VBA       0.153000
     41 H8          37.8880   -10.2350    35.0010 ha         1 VBA       0.117000
     42 H9          34.4250    -7.7180    34.9460 ha         1 VBA       0.117000
     43 H10         39.3270    -8.2600    34.6720 ha         1 VBA       0.115500
     44 H11         35.4320    -9.9700    35.1400 ha         1 VBA       0.116000
     45 H12         35.8670    -5.7430    34.6140 ha         1 VBA       0.115500
     46 H13         39.5280    -5.7890    34.8970 h1         1 VBA       0.072200
     47 H14         38.1030    -4.7630    34.7630 h1         1 VBA       0.072200
     48 H15         40.2320    -3.3400    29.8080 h4         1 VBA       0.031100
     49 H16         40.3010    -2.1690    25.8900 h5         1 VBA       0.049100
     50 H17         35.9770    -4.0940    28.0370 hn         1 VBA       0.525000
     51 H18         36.5290    -3.2020    25.2620 h1         1 VBA       0.120700
     52 H19         34.4300    -5.1540    26.2840 h1         1 VBA       0.039700
     53 H20         36.4810    -6.1140    25.7070 ho         1 VBA       0.460000
     54 H21         33.3760    -4.8980    24.1490 h1         1 VBA       0.064700
     55 H22         35.3910    -4.7660    22.9330 ho         1 VBA       0.467000
     56 H23         29.3730    -3.6230    26.3210 hn         1 VBA       0.483500
     57 H24         28.7480    -2.5880    25.1480 hn         1 VBA       0.483500
     58 C23         38.5710    -5.6730    34.3890 c3         1 VBA       0.133900
@<TRIPOS>BOND
     1     1     2 1   
     2     1    24 1   
     3     1    34 1   
     4     1    35 1   
     5     2     3 1   
     6     2    27 1   
     7     2    36 1   
     8     3    29 1   
     9     3    37 1   
    10     3    38 1   
    11     4     5 ar  
    12     4    22 ar  
    13     4    23 1   
    14     5    17 1   
    15     5    19 ar  
    16     6     8 1   
    17     6    16 2   
    18     6    17 1   
    19     7     8 2   
    20     7    15 1   
    21     7    39 1   
    22     8    40 1   
    23     9    12 ar  
    24     9    14 ar  
    25     9    58 1   
    26    10    12 ar  
    27    10    13 ar  
    28    10    41 1   
    29    11    13 ar  
    30    11    14 ar  
    31    11    42 1   
    32    12    43 1   
    33    13    44 1   
    34    14    45 1   
    35    15    16 1   
    36    15    58 1   
    37    17    18 2   
    38    19    20 ar  
    39    19    48 1   
    40    20    21 ar  
    41    21    22 ar  
    42    21    49 1   
    43    23    24 1   
    44    23    50 1   
    45    24    25 1   
    46    24    51 1   
    47    25    26 1   
    48    25    27 1   
    49    25    52 1   
    50    26    53 1   
    51    27    28 1   
    52    27    54 1   
    53    28    55 1   
    54    29    30 1   
    55    30    31 2   
    56    30    32 2   
    57    30    33 1   
    58    33    56 1   
    59    33    57 1   
    60    46    58 1   
    61    47    58 1   
@<TRIPOS>SUBSTRUCTURE
     1 VBA         1 TEMP              0 ****  ****    0 ROOT
