@<TRIPOS>MOLECULE
VC7
   39    41     1     0     0
SMALL
abcg2


@<TRIPOS>ATOM
      1 C1         -13.4280    14.4150    -0.4310 c5         1 VC7       0.314300
      2 C2         -15.0620    11.0760    -2.6340 cc         1 VC7       0.711800
      3 C7         -12.7360    13.9800     0.8640 c5         1 VC7       0.091300
      4 C3         -11.6380    15.0430     1.0250 c5         1 VC7       0.100300
      5 C4         -13.5400    12.6490    -2.2200 cd         1 VC7       0.124400
      6 C9         -12.3010    16.2910     0.4440 c5         1 VC7       0.162300
      7 C5         -12.7000    12.2940    -3.2720 cc         1 VC7       0.098500
      8 C10        -11.3580    17.3160    -0.1400 c3         1 VC7       0.224600
      9 C6         -13.0720    11.2020    -4.1070 c          1 VC7       0.519500
     10 C8         -11.7650    13.9610    -2.3130 cd         1 VC7       0.441400
     11 N1         -14.3010    10.6500    -3.6920 ns         1 VC7      -0.460400
     12 N2         -16.1960    10.3930    -2.3770 nv         1 VC7      -1.055200
     13 N3         -14.7100    12.0850    -1.8620 nd         1 VC7      -0.691100
     14 N7         -11.5990    13.1320    -3.3120 nc         1 VC7      -0.616000
     15 N9         -12.9330    13.7170    -1.6120 na         1 VC7      -0.197500
     16 O2         -13.6780    14.0790     1.9200 oh         1 VC7      -0.721000
     17 O3         -11.2880    15.2720     2.3810 oh         1 VC7      -0.719000
     18 O4         -13.1980    15.8030    -0.5740 os         1 VC7      -0.433000
     19 O5         -10.5160    16.7050    -1.1070 os         1 VC7      -0.626400
     20 P           -9.2880    17.5750    -1.7840 p5         1 VC7       1.403400
     21 H1         -14.4970    14.2100    -0.3770 h2         1 VC7       0.108700
     22 H2         -12.3400    12.9650     0.7870 h1         1 VC7       0.064700
     23 H3         -10.7600    14.7690     0.4400 h1         1 VC7       0.090700
     24 H4         -12.8860    16.7780     1.2310 h1         1 VC7       0.057700
     25 H5         -10.7630    17.7360     0.6760 h1         1 VC7       0.047700
     26 H5'        -11.9380    18.1250    -0.5940 h1         1 VC7       0.047700
     27 H8         -11.1160    14.7790    -2.0460 h5         1 VC7       0.114100
     28 HCP2        -9.1550    15.7580    -3.3850 hc         1 VC7       0.044700
     29 HCP3        -7.6120    16.6100    -3.1980 hc         1 VC7       0.044700
     30 HCP1        -8.1360    15.4520    -1.9600 hc         1 VC7       0.044700
     31 H6         -14.6230     9.8600    -4.2370 hn         1 VC7       0.312500
     32 H21        -16.8320    10.7940    -1.7060 hn         1 VC7       0.494000
     33 H22        -16.5880     9.7740    -3.0680 hn         1 VC7       0.494000
     34 HO2        -13.1810    14.3520     2.7080 ho         1 VC7       0.521000
     35 HO3        -10.5720    14.6710     2.6240 ho         1 VC7       0.510000
     36 OP3         -9.8680    18.5640    -2.7590 o          1 VC7      -0.831500
     37 O6         -12.4830    10.7270    -5.0760 o          1 VC7      -0.538000
     38 CP2         -8.4760    16.2130    -2.6630 c3         1 VC7      -0.464100
     39 OP1         -8.4060    18.0960    -0.6830 o          1 VC7      -0.831500
@<TRIPOS>BOND
     1     1     3 1   
     2     1    15 1   
     3     1    18 1   
     4     1    21 1   
     5     2    11 1   
     6     2    12 1   
     7     2    13 2   
     8     3     4 1   
     9     3    16 1   
    10     3    22 1   
    11     4     6 1   
    12     4    17 1   
    13     4    23 1   
    14     5     7 2   
    15     5    13 1   
    16     5    15 1   
    17     6     8 1   
    18     6    18 1   
    19     6    24 1   
    20     7     9 1   
    21     7    14 1   
    22     8    19 1   
    23     8    25 1   
    24     8    26 1   
    25     9    11 1   
    26     9    37 2   
    27    10    14 2   
    28    10    15 1   
    29    10    27 1   
    30    11    31 1   
    31    12    32 1   
    32    12    33 1   
    33    16    34 1   
    34    17    35 1   
    35    19    20 1   
    36    20    36 1   
    37    20    38 1   
    38    20    39 1   
    39    28    38 1   
    40    29    38 1   
    41    30    38 1   
@<TRIPOS>SUBSTRUCTURE
     1 VC7         1 TEMP              0 ****  ****    0 ROOT
