@<TRIPOS>MOLECULE
VTP
  114   113     1     0     0
SMALL
abcg2


@<TRIPOS>ATOM
      1 C            3.2850    -0.7740     0.9250 c3         1 VTP       0.248800
      2 O            3.1280    -1.9600     1.6630 os         1 VTP      -0.588400
      3 P            1.6650    -2.7720     1.5530 p5         1 VTP       1.444800
      4 C1           4.4220    -0.0030     1.4820 c2         1 VTP      -0.114200
      5 O1           0.8170    -1.8740     2.5420 os         1 VTP      -0.739800
      6 P1          -0.7740    -2.3110     3.1710 p5         1 VTP       1.340900
      7 C2           5.1630     0.8780     0.8100 c2         1 VTP      -0.247400
      8 O2          -0.4650    -3.3410     4.2400 o          1 VTP      -0.940167
      9 C3           6.2240     1.6980     1.4840 c3         1 VTP      -0.018900
     10 O3          -1.2810    -0.9890     3.7250 o          1 VTP      -0.940167
     11 C4           4.9620     1.1390    -0.6620 c3         1 VTP      -0.008200
     12 O4          -1.4990    -2.8650     1.9510 o          1 VTP      -0.940167
     13 C5           3.7740     2.0650    -0.9660 c3         1 VTP      -0.047200
     14 O5           1.1870    -2.7070     0.1270 o          1 VTP      -0.873000
     15 C6           3.6150     2.3060    -2.4360 c2         1 VTP      -0.218200
     16 O6           1.9520    -4.1340     2.1300 o          1 VTP      -0.873000
     17 C7           2.6450     1.8530    -3.2390 c2         1 VTP      -0.117400
     18 C8           2.6390     2.1950    -4.7020 c3         1 VTP      -0.046900
     19 C9           1.4800     1.0130    -2.7790 c3         1 VTP      -0.051200
     20 C10          0.2020     1.8360    -2.5230 c3         1 VTP      -0.003200
     21 C11         -0.9630     1.0010    -2.0560 c2         1 VTP      -0.337200
     22 C12         -1.1260     0.5220    -0.8170 c2         1 VTP      -0.000400
     23 C13         -2.3190    -0.2920    -0.4170 c3         1 VTP      -0.090900
     24 C14         -0.1110     0.7220     0.2680 c3         1 VTP      -0.071200
     25 C15         -0.6200     1.4350     1.5300 c3         1 VTP      -0.057200
     26 C16          0.5330     1.7310     2.4460 c2         1 VTP      -0.100200
     27 C17          1.3590     2.7780     2.3630 c2         1 VTP      -0.238400
     28 C18          2.5290     2.9280     3.2880 c3         1 VTP      -0.025900
     29 C19          1.1850     3.8810     1.3460 c3         1 VTP      -0.011200
     30 C20          0.1710     4.9520     1.7890 c3         1 VTP      -0.050200
     31 C21          0.0350     6.1090     0.8340 c2         1 VTP      -0.196200
     32 C22         -0.7290     6.1410    -0.2640 c2         1 VTP      -0.142400
     33 C23         -0.8200     7.3640    -1.1270 c3         1 VTP      -0.041900
     34 C24         -1.5680     4.9690    -0.6980 c3         1 VTP      -0.046200
     35 C25         -2.9700     4.9430    -0.0760 c3         1 VTP      -0.031200
     36 C26         -3.6340     3.6180    -0.3150 c2         1 VTP      -0.207200
     37 C27         -4.9340     3.3340    -0.4180 c2         1 VTP      -0.140400
     38 C28         -5.3660     1.8930    -0.5180 c3         1 VTP      -0.040200
     39 C29         -5.7680     1.3030     0.8460 c3         1 VTP      -0.017200
     40 C30         -6.0630    -0.1620     0.7440 c2         1 VTP      -0.307200
     41 C31         -5.5180    -1.1600     1.4470 c2         1 VTP      -0.040400
     42 C32         -5.8440    -2.5900     1.0930 c3         1 VTP      -0.034200
     43 C33         -4.6660    -3.3010     0.4110 c3         1 VTP      -0.076200
     44 C34         -4.9760    -4.7370     0.1180 c2         1 VTP      -0.130200
     45 C35         -5.0300    -5.3550    -1.0670 c2         1 VTP      -0.185400
     46 C36         -4.7800    -4.6920    -2.3900 c3         1 VTP      -0.031900
     47 C37         -5.3640    -6.8160    -1.1630 c3         1 VTP      -0.031900
     48 C38         -4.5450    -0.9960     2.5740 c3         1 VTP      -0.090900
     49 C39         -6.0300     4.3540    -0.3540 c3         1 VTP      -0.040900
     50 H            3.4350    -0.9910    -0.1430 h1         1 VTP       0.022700
     51 HA           2.3920    -0.1410     0.9900 h1         1 VTP       0.022700
     52 H1           4.5910    -0.1250     2.5500 ha         1 VTP       0.175000
     53 H3           7.2110     1.5090     1.0540 hc         1 VTP       0.007367
     54 H3A          6.0270     2.7660     1.3510 hc         1 VTP       0.007367
     55 H3B          6.2760     1.5020     2.5550 hc         1 VTP       0.007367
     56 H4           5.8720     1.5670    -1.0930 hc         1 VTP       0.024700
     57 H4A          4.7900     0.1960    -1.1890 hc         1 VTP       0.024700
     58 H5           2.8710     1.6390    -0.5290 hc         1 VTP       0.056200
     59 H5A          3.9230     3.0220    -0.4550 hc         1 VTP       0.056200
     60 H6           4.4020     2.9060    -2.8890 ha         1 VTP       0.129000
     61 H8           2.7000     1.2920    -5.3140 hc         1 VTP       0.020033
     62 H8A          1.7100     2.6960    -4.9870 hc         1 VTP       0.020033
     63 H8B          3.4670     2.8480    -4.9760 hc         1 VTP       0.020033
     64 H9           1.2600     0.2610    -3.5450 hc         1 VTP       0.070200
     65 H9A          1.7240     0.4540    -1.8750 hc         1 VTP       0.070200
     66 H10          0.4340     2.6190    -1.7940 hc         1 VTP       0.012200
     67 H10A        -0.0770     2.3580    -3.4410 hc         1 VTP       0.012200
     68 H11         -1.7180     0.7630    -2.8030 ha         1 VTP       0.142000
     69 H13         -2.0280    -1.1570     0.1840 hc         1 VTP       0.063033
     70 H13A        -2.9960     0.2850     0.2160 hc         1 VTP       0.063033
     71 H13B        -2.8920    -0.6270    -1.2820 hc         1 VTP       0.063033
     72 H14          0.2450    -0.2690     0.5620 hc         1 VTP       0.083200
     73 H14A         0.7500     1.2710    -0.1040 hc         1 VTP       0.083200
     74 H15         -1.1530     2.3460     1.2540 hc         1 VTP       0.061700
     75 H15A        -1.3070     0.7740     2.0550 hc         1 VTP       0.061700
     76 H16          0.7200     0.9640     3.1910 ha         1 VTP       0.248000
     77 H18          3.4670     2.9200     2.7290 hc         1 VTP       0.018033
     78 H18A         2.4970     3.8760     3.8330 hc         1 VTP       0.018033
     79 H18B         2.5750     2.1200     4.0180 hc         1 VTP       0.018033
     80 H19          2.1480     4.3640     1.1620 hc         1 VTP       0.030200
     81 H19A         0.8710     3.4700     0.3820 hc         1 VTP       0.030200
     82 H20         -0.7960     4.4690     1.9480 hc         1 VTP       0.045200
     83 H20A         0.4760     5.3360     2.7670 hc         1 VTP       0.045200
     84 H21          0.6220     6.9930     1.0710 ha         1 VTP       0.140000
     85 H23         -0.4730     7.1560    -2.1420 hc         1 VTP       0.021367
     86 H23A        -1.8560     7.7040    -1.2190 hc         1 VTP       0.021367
     87 H23B        -0.2320     8.1920    -0.7310 hc         1 VTP       0.021367
     88 H24         -1.6570     4.9500    -1.7880 hc         1 VTP       0.060200
     89 H24A        -1.0680     4.0390    -0.4290 hc         1 VTP       0.060200
     90 H25         -2.8660     5.1050     1.0030 hc         1 VTP       0.033700
     91 H25A        -3.5690     5.7790    -0.4460 hc         1 VTP       0.033700
     92 H26         -2.9420     2.7780    -0.3640 ha         1 VTP       0.208000
     93 H28         -6.2070     1.7920    -1.2120 hc         1 VTP       0.044700
     94 H28A        -4.5490     1.2970    -0.9280 hc         1 VTP       0.044700
     95 H29         -4.9560     1.4850     1.5550 hc         1 VTP       0.036700
     96 H29A        -6.6410     1.8450     1.2240 hc         1 VTP       0.036700
     97 H30         -6.7720    -0.4310    -0.0370 ha         1 VTP       0.133000
     98 H32         -6.1130    -3.1460     1.9990 hc         1 VTP       0.016200
     99 H32A        -6.7130    -2.6250     0.4330 hc         1 VTP       0.016200
    100 H33         -4.4080    -2.7520    -0.4960 hc         1 VTP       0.112200
    101 H33A        -3.7850    -3.2440     1.0590 hc         1 VTP       0.112200
    102 H34         -5.1940    -5.3390     1.0000 ha         1 VTP       0.154000
    103 H36         -3.9610    -5.1870    -2.9200 hc         1 VTP       0.020033
    104 H36A        -5.6570    -4.7790    -3.0350 hc         1 VTP       0.020033
    105 H36B        -4.5300    -3.6360    -2.3100 hc         1 VTP       0.020033
    106 H37         -6.2260    -6.9810    -1.8140 hc         1 VTP       0.020033
    107 H37A        -4.5350    -7.3800    -1.5990 hc         1 VTP       0.020033
    108 H37B        -5.5880    -7.2520    -0.1890 hc         1 VTP       0.020033
    109 H38         -4.9410    -1.4730     3.4780 hc         1 VTP       0.077367
    110 H38A        -3.5860    -1.4720     2.3730 hc         1 VTP       0.077367
    111 H38B        -4.3380     0.0430     2.8230 hc         1 VTP       0.077367
    112 H39         -6.7240     4.2290    -1.1880 hc         1 VTP       0.021033
    113 H39A        -6.6230     4.2430     0.5590 hc         1 VTP       0.021033
    114 H39B        -5.6580     5.3770    -0.3760 hc         1 VTP       0.021033
@<TRIPOS>BOND
     1     1     2 1   
     2     1     4 1   
     3     1    50 1   
     4     1    51 1   
     5     2     3 1   
     6     3     5 1   
     7     3    14 1   
     8     3    16 1   
     9     4     7 2   
    10     4    52 1   
    11     5     6 1   
    12     6     8 1   
    13     6    10 1   
    14     6    12 1   
    15     7     9 1   
    16     7    11 1   
    17     9    53 1   
    18     9    54 1   
    19     9    55 1   
    20    11    13 1   
    21    11    56 1   
    22    11    57 1   
    23    13    15 1   
    24    13    58 1   
    25    13    59 1   
    26    15    17 2   
    27    15    60 1   
    28    17    18 1   
    29    17    19 1   
    30    18    61 1   
    31    18    62 1   
    32    18    63 1   
    33    19    20 1   
    34    19    64 1   
    35    19    65 1   
    36    20    21 1   
    37    20    66 1   
    38    20    67 1   
    39    21    22 2   
    40    21    68 1   
    41    22    23 1   
    42    22    24 1   
    43    23    69 1   
    44    23    70 1   
    45    23    71 1   
    46    24    25 1   
    47    24    72 1   
    48    24    73 1   
    49    25    26 1   
    50    25    74 1   
    51    25    75 1   
    52    26    27 2   
    53    26    76 1   
    54    27    28 1   
    55    27    29 1   
    56    28    77 1   
    57    28    78 1   
    58    28    79 1   
    59    29    30 1   
    60    29    80 1   
    61    29    81 1   
    62    30    31 1   
    63    30    82 1   
    64    30    83 1   
    65    31    32 2   
    66    31    84 1   
    67    32    33 1   
    68    32    34 1   
    69    33    85 1   
    70    33    86 1   
    71    33    87 1   
    72    34    35 1   
    73    34    88 1   
    74    34    89 1   
    75    35    36 1   
    76    35    90 1   
    77    35    91 1   
    78    36    37 2   
    79    36    92 1   
    80    37    38 1   
    81    37    49 1   
    82    38    39 1   
    83    38    93 1   
    84    38    94 1   
    85    39    40 1   
    86    39    95 1   
    87    39    96 1   
    88    40    41 2   
    89    40    97 1   
    90    41    42 1   
    91    41    48 1   
    92    42    43 1   
    93    42    98 1   
    94    42    99 1   
    95    43    44 1   
    96    43   100 1   
    97    43   101 1   
    98    44    45 2   
    99    44   102 1   
   100    45    46 1   
   101    45    47 1   
   102    46   103 1   
   103    46   104 1   
   104    46   105 1   
   105    47   106 1   
   106    47   107 1   
   107    47   108 1   
   108    48   109 1   
   109    48   110 1   
   110    48   111 1   
   111    49   112 1   
   112    49   113 1   
   113    49   114 1   
@<TRIPOS>SUBSTRUCTURE
     1 VTP         1 TEMP              0 ****  ****    0 ROOT
