@<TRIPOS>MOLECULE
VU0
   23    24     1     0     0
SMALL
abcg2


@<TRIPOS>ATOM
      1 N1          99.7710    92.5950    84.3680 n8         1 VU0      -0.984200
      2 C1         100.2150    93.6440    85.2830 c5         1 VU0       0.037200
      3 C2          99.0620    94.5680    85.8200 c5         1 VU0      -0.089400
      4 C3          99.4250    95.9540    85.2810 c5         1 VU0      -0.084700
      5 C4          99.2560    95.9510    83.7520 c5         1 VU0      -0.077400
      6 C5         100.4840    95.1360    83.2690 c5         1 VU0      -0.084400
      7 C6         101.1310    94.6680    84.5800 c5         1 VU0      -0.027700
      8 C7         100.9490    95.9280    85.4330 c5         1 VU0      -0.077400
      9 C8         100.8970    92.9220    86.4810 c          1 VU0       0.731000
     10 O1         100.2310    91.9930    86.9870 o          1 VU0      -0.730500
     11 O2         102.0180    93.3130    86.8560 o          1 VU0      -0.730500
     12 H1          99.3390    91.8730    84.9300 hn         1 VU0       0.380000
     13 H2          99.0380    92.9480    83.7650 hn         1 VU0       0.380000
     14 H4          99.0240    94.5850    86.9130 hc         1 VU0       0.032200
     15 H5          98.0830    94.2240    85.4750 hc         1 VU0       0.032200
     16 H6          98.9040    96.7750    85.7780 hc         1 VU0       0.034700
     17 H7          99.2700    96.9670    83.3510 hc         1 VU0       0.018700
     18 H8          98.3080    95.5000    83.4520 hc         1 VU0       0.018700
     19 H9         100.2250    94.3190    82.5940 hc         1 VU0       0.027200
     20 H10        101.1830    95.7760    82.7250 hc         1 VU0       0.027200
     21 H11        102.1540    94.3160    84.4540 hc         1 VU0       0.079700
     22 H12        101.2790    95.8080    86.4650 hc         1 VU0       0.043700
     23 H13        101.4430    96.8080    85.0100 hc         1 VU0       0.043700
@<TRIPOS>BOND
     1     1     2 1   
     2     1    12 1   
     3     1    13 1   
     4     2     3 1   
     5     2     7 1   
     6     2     9 1   
     7     3     4 1   
     8     3    14 1   
     9     3    15 1   
    10     4     5 1   
    11     4     8 1   
    12     4    16 1   
    13     5     6 1   
    14     5    17 1   
    15     5    18 1   
    16     6     7 1   
    17     6    19 1   
    18     6    20 1   
    19     7     8 1   
    20     7    21 1   
    21     8    22 1   
    22     8    23 1   
    23     9    10 1   
    24     9    11 1   
@<TRIPOS>SUBSTRUCTURE
     1 VU0         1 TEMP              0 ****  ****    0 ROOT
