@<TRIPOS>MOLECULE
VW0
   41    41     1     0     0
SMALL
abcg2


@<TRIPOS>ATOM
      1 C02        -28.4650     6.5000   -37.6040 c6         1 VW0       0.084300
      2 C03        -28.8450     6.1570   -36.1540 c6         1 VW0       0.162300
      3 C05        -30.9680     5.0880   -36.3400 c3         1 VW0       0.042300
      4 C06        -32.4320     5.5030   -36.3720 c3         1 VW0      -0.075100
      5 C07        -30.7670     3.8750   -35.3980 c          1 VW0       0.688000
      6 C10        -28.2150     7.1510   -35.1840 c6         1 VW0       0.035700
      7 C13        -24.5600     6.7140   -34.2860 c3         1 VW0      -0.181100
      8 C15        -28.7030     8.5890   -35.5150 c6         1 VW0       0.375300
      9 C18        -28.4330     8.0200   -37.8330 c6         1 VW0       0.153300
     10 C19        -28.9930     8.4110   -39.1970 c3         1 VW0       0.276600
     11 N11        -26.7740     7.0270   -35.2060 ns         1 VW0      -0.489900
     12 O01        -27.1730     6.0150   -37.9350 oh         1 VW0      -0.772000
     13 O04        -30.2310     6.2330   -35.9580 os         1 VW0      -0.405000
     14 O08        -31.2630     2.8090   -35.8150 o          1 VW0      -0.760500
     15 O09        -30.1660     4.0610   -34.3240 o          1 VW0      -0.760500
     16 O14        -26.4940     7.1740   -32.9640 o          1 VW0      -0.625100
     17 O17        -29.1530     8.7100   -36.8340 os         1 VW0      -0.386000
     18 O20        -30.2350     7.8530   -39.4810 os         1 VW0      -0.584400
     19 O22        -32.2580     8.8180   -38.1600 o          1 VW0      -0.924500
     20 O23        -31.2370    10.1390   -40.1100 o          1 VW0      -0.924500
     21 O24        -32.4970     7.9270   -40.5430 o          1 VW0      -0.924500
     22 P21        -31.6880     8.7810   -39.5770 p5         1 VW0       1.280900
     23 O02        -27.7580     9.5540   -35.1870 oh         1 VW0      -0.694000
     24 H1         -29.2130     6.0500   -38.2670 h1         1 VW0       0.111700
     25 H2         -28.4660     5.1540   -35.9170 h1         1 VW0       0.036700
     26 H3         -30.6830     4.7720   -37.3540 h1         1 VW0       0.024700
     27 H4         -32.5780     6.3630   -37.0280 hc         1 VW0       0.041700
     28 H5         -33.0490     4.6840   -36.7380 hc         1 VW0       0.041700
     29 H6         -32.7870     5.7740   -35.3750 hc         1 VW0       0.041700
     30 H7         -28.5470     6.9130   -34.1730 h1         1 VW0       0.100700
     31 H8         -23.9670     7.4560   -33.7530 hc         1 VW0       0.040367
     32 H9         -24.3200     5.7400   -33.8570 hc         1 VW0       0.040367
     33 H10        -24.2560     6.7110   -35.3310 hc         1 VW0       0.040367
     34 H11        -29.5790     8.8090   -34.9030 h2         1 VW0       0.116700
     35 H12        -27.3780     8.3380   -37.8240 h1         1 VW0      -0.026300
     36 H13        -28.2580     8.0600   -39.9370 h1         1 VW0      -0.010300
     37 H14        -29.0010     9.5050   -39.2690 h1         1 VW0      -0.010300
     38 H15        -26.3380     6.7610   -36.0780 hn         1 VW0       0.326500
     39 H16        -27.2030     5.0530   -37.9490 ho         1 VW0       0.482000
     40 H20        -26.8830     9.2460   -35.4560 ho         1 VW0       0.419000
     41 C12        -26.0270     6.9950   -34.0780 c          1 VW0       0.593100
@<TRIPOS>BOND
     1     1     2 1   
     2     1     9 1   
     3     1    12 1   
     4     1    24 1   
     5     2     6 1   
     6     2    13 1   
     7     2    25 1   
     8     3     4 1   
     9     3     5 1   
    10     3    13 1   
    11     3    26 1   
    12     4    27 1   
    13     4    28 1   
    14     4    29 1   
    15     5    14 1   
    16     5    15 1   
    17     6     8 1   
    18     6    11 1   
    19     6    30 1   
    20     7    31 1   
    21     7    32 1   
    22     7    33 1   
    23     7    41 1   
    24     8    17 1   
    25     8    23 1   
    26     8    34 1   
    27     9    10 1   
    28     9    17 1   
    29     9    35 1   
    30    10    18 1   
    31    10    36 1   
    32    10    37 1   
    33    11    38 1   
    34    11    41 1   
    35    12    39 1   
    36    16    41 2   
    37    18    22 1   
    38    19    22 1   
    39    20    22 1   
    40    21    22 1   
    41    23    40 1   
@<TRIPOS>SUBSTRUCTURE
     1 VW0         1 TEMP              0 ****  ****    0 ROOT
