@<TRIPOS>MOLECULE
02I
   32    35     1     0     0
SMALL
abcg2


@<TRIPOS>ATOM
      1 P            1.2060     8.7620     9.8990 p4         1 02I      -0.157200
      2 N1          -2.9000     1.8240     8.7900 nb         1 02I      -0.332000
      3 C2          -3.9840     2.5010     8.4200 ca         1 02I       0.129900
      4 N3          -4.1340     3.8080     8.2980 nb         1 02I      -0.222000
      5 C4          -3.0120     4.4620     8.5940 ca         1 02I       0.090500
      6 C5          -1.8070     3.8990     8.9940 ca         1 02I      -0.069600
      7 C6          -1.7820     2.4970     9.0880 ca         1 02I       0.420900
      8 N6          -0.6870     1.8150     9.4430 nv         1 02I      -1.078900
      9 N7          -0.8610     4.8670     9.2190 nc         1 02I      -0.550100
     10 C8          -1.4760     5.9880     8.9650 cd         1 02I       0.445800
     11 N9          -2.7760     5.8000     8.5730 na         1 02I      -0.315300
     12 C1          -3.6810     6.9200     8.3340 c5         1 02I       0.312300
     13 OP3          1.7710     8.3860    11.4020 os         1 02I      -0.216400
     14 C7          -4.1890     7.4810     9.6560 c5         1 02I      -0.128400
     15 OP2          0.4810    10.1110     9.9440 o          1 02I      -0.407000
     16 C3          -3.0210     8.3720    10.1090 c5         1 02I       0.158300
     17 O3          -3.5150     9.6500    10.4360 oh         1 02I      -0.759000
     18 C9          -2.0930     8.3740     8.8790 c5         1 02I       0.063300
     19 O4          -2.9180     7.9500     7.7890 os         1 02I      -0.454000
     20 C10         -0.9160     7.3860     9.0110 c6         1 02I       0.228000
     21 O5          -0.1640     7.5840    10.1420 os         1 02I      -0.403400
     22 H1N6         0.1280     2.2970     9.7790 hn         1 02I       0.493000
     23 H2N6        -0.7450     0.8240     9.6000 hn         1 02I       0.493000
     24 H1          -4.4580     6.6060     7.6380 h2         1 02I       0.082700
     25 H12         -5.0740     8.0930     9.4720 hc         1 02I       0.053700
     26 H22         -4.4540     6.7040    10.3710 hc         1 02I       0.053700
     27 H3          -2.5000     7.9350    10.9670 h1         1 02I       0.089700
     28 H4          -1.7020     9.3670     8.6600 h1         1 02I       0.132700
     29 H5          -0.3060     7.5040     8.0910 h1         1 02I       0.023700
     30 HO3         -2.7800    10.1720    10.7740 ho         1 02I       0.536000
     31 OP1          2.9840     9.1870    11.1440 o          1 02I      -0.728000
     32 H2          -4.8550     1.8960     8.1920 h5         1 02I       0.013100
@<TRIPOS>BOND
     1     1    13 1   
     2     1    15 2   
     3     1    21 1   
     4     2     3 ar  
     5     2     7 ar  
     6     3     4 ar  
     7     3    32 1   
     8     4     5 ar  
     9     5     6 ar  
    10     5    11 1   
    11     6     7 ar  
    12     6     9 1   
    13     7     8 1   
    14     8    22 1   
    15     8    23 1   
    16     9    10 2   
    17    10    11 1   
    18    10    20 1   
    19    11    12 1   
    20    12    14 1   
    21    12    19 1   
    22    12    24 1   
    23    13    31 1   
    24    14    16 1   
    25    14    25 1   
    26    14    26 1   
    27    16    17 1   
    28    16    18 1   
    29    16    27 1   
    30    17    30 1   
    31    18    19 1   
    32    18    20 1   
    33    18    28 1   
    34    20    21 1   
    35    20    29 1   
@<TRIPOS>SUBSTRUCTURE
     1 02I         1 TEMP              0 ****  ****    0 ROOT
