@<TRIPOS>MOLECULE
02V
   24    24     1     0     0
SMALL
abcg2


@<TRIPOS>ATOM
      1 N           -2.1610    -1.4010     0.6090 n7         1 02V      -0.825400
      2 C1          -3.4830    -1.3690     1.1980 c3         1 02V       0.161100
      3 CA          -1.4870    -0.1190     0.6540 c3         1 02V       0.056800
      4 C19         -0.0510    -0.2680     0.2180 ca         1 02V      -0.020300
      5 C20          0.3000    -1.0680    -0.8640 ca         1 02V      -0.085000
      6 C21          0.9590     0.4380     0.8700 ca         1 02V      -0.152000
      7 C22          1.6230    -1.1600    -1.2790 ca         1 02V      -0.134000
      8 C23          2.2800     0.3520     0.4620 ca         1 02V       0.026100
      9 C24          2.6240    -0.4560    -0.6280 ca         1 02V       0.082100
     10 C           -2.1390     0.9520    -0.2770 c          1 02V       0.729000
     11 O           -2.7390     0.5480    -1.2870 o          1 02V      -0.712000
     12 O2           3.3010     1.0090     1.0640 oh         1 02V      -0.578100
     13 H17         -3.5090    -0.9540     2.2170 h1         1 02V       0.016367
     14 H17A        -4.1580    -0.7740     0.5830 h1         1 02V       0.016367
     15 H17B        -3.8880    -2.3810     1.2440 h1         1 02V       0.016367
     16 HA          -1.4880     0.3020     1.6740 h1         1 02V       0.012700
     17 H20         -0.4600    -1.6300    -1.3900 ha         1 02V       0.142000
     18 H21          0.7120     1.0620     1.7240 ha         1 02V       0.112000
     19 HO81         2.9800     1.5320     1.8080 ho         1 02V       0.464000
     20 H           -1.5990    -2.0730     1.1160 hn         1 02V       0.366000
     21 H1           1.8870    -1.7870    -2.1220 ha         1 02V       0.110000
     22 OXT         -1.9470     2.1330     0.0710 o          1 02V      -0.712000
     23 O1           3.9030    -0.5700    -1.0570 oh         1 02V      -0.556100
     24 H3           4.4880    -0.0350    -0.5090 ho         1 02V       0.465000
@<TRIPOS>BOND
     1     1     2 1   
     2     1     3 1   
     3     1    20 1   
     4     2    13 1   
     5     2    14 1   
     6     2    15 1   
     7     3     4 1   
     8     3    10 1   
     9     3    16 1   
    10     4     5 ar  
    11     4     6 ar  
    12     5     7 ar  
    13     5    17 1   
    14     6     8 ar  
    15     6    18 1   
    16     7     9 ar  
    17     7    21 1   
    18     8     9 ar  
    19     8    12 1   
    20     9    23 1   
    21    10    11 1   
    22    10    22 1   
    23    12    19 1   
    24    23    24 1   
@<TRIPOS>SUBSTRUCTURE
     1 02V         1 TEMP              0 ****  ****    0 ROOT
