@<TRIPOS>MOLECULE
035
   30    29     1     0     0
SMALL
abcg2


@<TRIPOS>ATOM
      1 C1          35.4430   122.0190    18.3900 c          1 035       0.711000
      2 C2          35.2690   122.4830    19.8580 c3         1 035       0.139300
      3 C3          34.4580   123.7750    19.9440 c3         1 035      -0.091400
      4 C4          33.0700   123.6670    19.3140 c3         1 035      -0.063400
      5 C5          32.1320   124.8230    19.6710 c3         1 035      -0.068400
      6 C6          32.6360   126.2060    19.2580 c3         1 035      -0.087400
      7 C7          31.6010   127.2830    19.5360 c3         1 035       0.233600
      8 O8          36.1360   122.7410    17.6290 o          1 035      -0.805500
      9 O9          34.8560   120.9530    18.0600 o          1 035      -0.805500
     10 O10         36.5610   122.6610    20.4420 os         1 035      -0.598400
     11 O11         32.1270   128.5670    19.2320 os         1 035      -0.607400
     12 P12         36.8630   122.1490    22.0050 p5         1 035       1.312900
     13 O13         38.3700   122.3480    22.1020 o          1 035      -0.962833
     14 O14         36.0590   123.0580    22.9310 o          1 035      -0.962833
     15 O15         36.4200   120.6900    22.0690 o          1 035      -0.962833
     16 P16         31.1160   129.8990    19.3630 p5         1 035       1.308900
     17 O17         32.0700   131.0490    19.0670 o          1 035      -0.955833
     18 O18         30.5810   129.8790    20.7910 o          1 035      -0.955833
     19 O19         30.0290   129.7070    18.3080 o          1 035      -0.955833
     20 H2          34.7420   121.6900    20.3890 h1         1 035       0.014700
     21 H3          34.3660   124.0360    21.0000 hc         1 035       0.046200
     22 H3A         35.0330   124.5700    19.4650 hc         1 035       0.046200
     23 H4          33.1640   123.6000    18.2270 hc         1 035       0.014700
     24 H4A         32.6040   122.7330    19.6390 hc         1 035       0.014700
     25 H5          31.1610   124.6450    19.2020 hc         1 035      -0.003300
     26 H5A         31.9580   124.8180    20.7510 hc         1 035      -0.003300
     27 H6          33.5530   126.4510    19.7980 hc         1 035       0.040700
     28 H6A         32.8850   126.2090    18.1930 hc         1 035       0.040700
     29 H7          30.7020   127.0940    18.9390 h1         1 035      -0.015800
     30 H7A         31.3040   127.2450    20.5900 h1         1 035      -0.015800
@<TRIPOS>BOND
     1     1     2 1   
     2     1     8 1   
     3     1     9 1   
     4     2     3 1   
     5     2    10 1   
     6     2    20 1   
     7     3     4 1   
     8     3    21 1   
     9     3    22 1   
    10     4     5 1   
    11     4    23 1   
    12     4    24 1   
    13     5     6 1   
    14     5    25 1   
    15     5    26 1   
    16     6     7 1   
    17     6    27 1   
    18     6    28 1   
    19     7    11 1   
    20     7    29 1   
    21     7    30 1   
    22    10    12 1   
    23    11    16 1   
    24    12    13 1   
    25    12    14 1   
    26    12    15 1   
    27    16    17 1   
    28    16    18 1   
    29    16    19 1   
@<TRIPOS>SUBSTRUCTURE
     1 035         1 TEMP              0 ****  ****    0 ROOT
