@<TRIPOS>MOLECULE
0AP
   35    36     1     0     0
SMALL
abcg2


@<TRIPOS>ATOM
      1 P           17.5560    -3.7400     6.5360 p5         1 0AP       1.285900
      2 OP1         19.0780    -3.7700     6.4200 o          1 0AP      -0.933167
      3 OP2         17.0040    -4.0400     7.9240 o          1 0AP      -0.933167
      4 O5          17.1310    -2.0720     6.3560 os         1 0AP      -0.623400
      5 C5          18.0230    -1.1550     5.8100 c3         1 0AP       0.233600
      6 C4          18.1870    -1.2620     4.2990 c5         1 0AP       0.100300
      7 O4          16.9320    -1.1920     3.6090 os         1 0AP      -0.439000
      8 C3          19.0080    -0.1180     3.7170 c5         1 0AP       0.231300
      9 O3          19.6010    -0.5300     2.5250 os         1 0AP      -0.575400
     10 P1          20.9090     0.3890     1.8870 p5         1 0AP       1.287900
     11 O11         21.4460    -0.5830     0.8450 o          1 0AP      -0.937833
     12 O21         20.2680     1.6520     1.3160 o          1 0AP      -0.937833
     13 O31         21.8200     0.6360     3.0880 o          1 0AP      -0.937833
     14 C2          17.9220     0.9400     3.5020 c5         1 0AP      -0.155400
     15 C1          16.6820     0.1060     3.1720 c5         1 0AP       0.319700
     16 N1          15.4560     0.6230     3.8230 n          1 0AP      -0.287000
     17 C9          14.9130     1.8090     3.3130 c          1 0AP       0.690400
     18 O2          15.4700     2.3530     2.3660 o          1 0AP      -0.571000
     19 N3          13.7990     2.3080     3.8900 nc         1 0AP      -0.839100
     20 C8          13.2350     1.6920     4.9110 cd         1 0AP       0.757500
     21 N4          12.1250     2.2250     5.4330 nv         1 0AP      -1.077200
     22 C7          13.7620     0.4850     5.4510 cd         1 0AP      -0.571600
     23 C6          14.8770    -0.0070     4.8650 cc         1 0AP       0.082600
     24 OP3         16.8210    -4.4370     5.3940 o          1 0AP      -0.933167
     25 H5'1        17.6660    -0.1460     6.0640 h1         1 0AP      -0.016300
     26 H5'2        19.0270    -1.2430     6.2450 h1         1 0AP      -0.016300
     27 H4          18.6280    -2.2330     4.0610 h1         1 0AP       0.131700
     28 H3          19.7590     0.2370     4.4340 h1         1 0AP       0.051700
     29 H1          16.4730     0.0890     2.1000 h2         1 0AP       0.078700
     30 H2'1        17.7580     1.5200     4.4130 hc         1 0AP       0.059700
     31 H2'2        18.1900     1.6310     2.7070 hc         1 0AP       0.059700
     32 H4N1        11.7060     1.8480     6.2640 hn         1 0AP       0.463000
     33 H4N2        11.7930     3.1150     5.1010 hn         1 0AP       0.463000
     34 H13         13.3000    -0.0230     6.2850 ha         1 0AP       0.184000
     35 H14         15.3470    -0.9160     5.2120 h4         1 0AP       0.302000
@<TRIPOS>BOND
     1     1     2 1   
     2     1     3 1   
     3     1     4 1   
     4     1    24 1   
     5     4     5 1   
     6     5     6 1   
     7     5    25 1   
     8     5    26 1   
     9     6     7 1   
    10     6     8 1   
    11     6    27 1   
    12     7    15 1   
    13     8     9 1   
    14     8    14 1   
    15     8    28 1   
    16     9    10 1   
    17    10    11 1   
    18    10    12 1   
    19    10    13 1   
    20    14    15 1   
    21    14    30 1   
    22    14    31 1   
    23    15    16 1   
    24    15    29 1   
    25    16    17 1   
    26    16    23 1   
    27    17    18 2   
    28    17    19 1   
    29    19    20 2   
    30    20    21 1   
    31    20    22 1   
    32    21    32 1   
    33    21    33 1   
    34    22    23 2   
    35    22    34 1   
    36    23    35 1   
@<TRIPOS>SUBSTRUCTURE
     1 0AP         1 TEMP              0 ****  ****    0 ROOT
