@<TRIPOS>MOLECULE
0CH
   23    22     1     0     0
SMALL
abcg2


@<TRIPOS>ATOM
      1 O20        -25.3780     0.9240   -18.4530 o          1 0CH      -0.965167
      2 P17        -26.2100     0.7710   -17.1870 p5         1 0CH       1.380900
      3 O19        -27.5310     1.5250   -17.2200 o          1 0CH      -0.965167
      4 O18        -25.4240     0.9400   -15.8980 o          1 0CH      -0.965167
      5 O16        -26.7430    -0.8390   -17.2170 os         1 0CH      -0.740800
      6 P13        -26.0910    -2.2470   -16.8470 p5         1 0CH       1.491800
      7 O15        -24.6030    -2.2410   -17.0160 o          1 0CH      -0.902500
      8 O14        -26.8930    -3.2980   -17.5570 o          1 0CH      -0.902500
      9 O29        -26.3380    -2.3920   -15.2400 os         1 0CH      -0.597400
     10 C28        -27.5920    -2.8440   -14.7080 c3         1 0CH       0.245600
     11 C27        -28.6750    -1.7770   -14.6970 c3         1 0CH      -0.096400
     12 C30        -28.3200    -0.5600   -13.8460 c3         1 0CH      -0.071400
     13 C13        -29.4120     0.4890   -13.8760 c3         1 0CH       0.162600
     14 O33        -29.0300     1.5790   -13.0240 oh         1 0CH      -0.672000
     15 H4         -27.9280    -3.7120   -15.2750 h1         1 0CH      -0.013300
     16 H5         -27.3760    -3.1640   -13.6870 h1         1 0CH      -0.013300
     17 H6         -28.8830    -1.4660   -15.7210 hc         1 0CH       0.028200
     18 H7         -29.5870    -2.2440   -14.3140 hc         1 0CH       0.028200
     19 H8         -28.1520    -0.8710   -12.8110 hc         1 0CH       0.072200
     20 H9         -27.3930    -0.1180   -14.2100 hc         1 0CH       0.072200
     21 H10        -29.5560     0.8480   -14.8990 h1         1 0CH       0.012700
     22 H11        -30.3600     0.0620   -13.5320 h1         1 0CH       0.012700
     23 H12        -29.6930     2.2710   -13.0980 ho         1 0CH       0.398000
@<TRIPOS>BOND
     1     1     2 1   
     2     2     3 1   
     3     2     4 1   
     4     2     5 1   
     5     5     6 1   
     6     6     7 1   
     7     6     8 1   
     8     6     9 1   
     9     9    10 1   
    10    10    11 1   
    11    10    15 1   
    12    10    16 1   
    13    11    12 1   
    14    11    17 1   
    15    11    18 1   
    16    12    13 1   
    17    12    19 1   
    18    12    20 1   
    19    13    14 1   
    20    13    21 1   
    21    13    22 1   
    22    14    23 1   
@<TRIPOS>SUBSTRUCTURE
     1 0CH         1 TEMP              0 ****  ****    0 ROOT
