@<TRIPOS>MOLECULE
0KL
   52    53     1     0     0
SMALL
abcg2


@<TRIPOS>ATOM
      1 O3G         18.2540   -14.0930   -14.4300 o          1 0KL      -0.951500
      2 PG          16.7340   -14.0450   -14.3920 p5         1 0KL       1.357900
      3 O2G         16.1380   -12.7270   -13.9260 o          1 0KL      -0.951500
      4 O1G         16.0270   -14.6980   -15.5700 o          1 0KL      -0.951500
      5 O3B         16.2920   -15.0790   -13.0390 os         1 0KL      -0.723800
      6 PB          16.9100   -16.4680   -12.5850 p5         1 0KL       1.568800
      7 O1B         15.8920   -17.1130   -11.6520 o          1 0KL      -0.900500
      8 O2B         17.4500   -17.3100   -13.7020 o          1 0KL      -0.900500
      9 O3A         18.1260   -15.9460   -11.5890 os         1 0KL      -0.729800
     10 PA          19.6940   -16.3280   -11.3360 p5         1 0KL       1.492800
     11 O1A         20.4410   -16.5060   -12.6180 o          1 0KL      -0.862500
     12 O2A         20.1780   -15.3820   -10.2840 o          1 0KL      -0.862500
     13 O5          19.5600   -17.7960   -10.5820 os         1 0KL      -0.635400
     14 C5          19.3730   -18.9760   -11.3350 c3         1 0KL       0.224600
     15 C4          18.5800   -19.9970   -10.5570 c5         1 0KL       0.106300
     16 C3          17.2150   -19.5580   -10.0150 c5         1 0KL       0.194300
     17 O3          16.2060   -19.5740   -10.9660 oh         1 0KL      -0.823000
     18 C2          17.0220   -20.5880    -8.9060 c5         1 0KL      -0.145400
     19 O4          19.3090   -20.4400    -9.4070 os         1 0KL      -0.468000
     20 C1          18.4380   -20.7750    -8.3740 c5         1 0KL       0.340700
     21 N1          18.7250   -19.8990    -7.2070 n          1 0KL      -0.303000
     22 C9          18.3270   -20.3590    -5.9700 c          1 0KL       0.605000
     23 O2          17.7440   -21.4120    -5.8170 o          1 0KL      -0.622000
     24 N3          18.6420   -19.5340    -4.9220 ns         1 0KL      -0.476500
     25 C6          19.3270   -18.6950    -7.3520 cc         1 0KL       0.064600
     26 C7          19.6100   -17.8740    -6.3110 cd         1 0KL      -0.152900
     27 C8          19.2630   -18.2980    -4.9660 c          1 0KL       0.596200
     28 O6          19.4730   -17.6680    -3.9490 o          1 0KL      -0.596000
     29 C29         20.2440   -16.6220    -6.5060 ch         1 0KL      -0.151300
     30 C30         20.7860   -15.5580    -6.6730 c1         1 0KL      -0.060100
     31 C31         21.3790   -14.2520    -6.9270 c3         1 0KL       0.016700
     32 C32         21.0540   -13.1990    -5.8600 c3         1 0KL      -0.073400
     33 C33         21.9440   -13.2600    -4.6280 c3         1 0KL       0.154800
     34 N34         21.9390   -14.5720    -4.0040 n8         1 0KL      -0.978200
     35 H5          18.8280   -18.7920   -12.2650 h1         1 0KL       0.050200
     36 H6          20.3410   -19.4060   -11.6160 h1         1 0KL       0.050200
     37 H7          18.4210   -20.8530   -11.2290 h1         1 0KL       0.023700
     38 H8          17.3170   -18.5600    -9.5640 h1         1 0KL       0.080700
     39 H9          16.0720   -18.6330   -11.2820 ho         1 0KL       0.628000
     40 H10         16.3120   -20.2910    -8.1350 hc         1 0KL       0.045700
     41 H11         16.6770   -21.5300    -9.3400 hc         1 0KL       0.045700
     42 H12         18.6310   -21.7930    -8.0350 h2         1 0KL       0.046700
     43 H13         18.3650   -19.8710    -4.0080 hn         1 0KL       0.301500
     44 H14         19.5850   -18.4030    -8.3600 h4         1 0KL       0.313000
     45 H15         22.4640   -14.3490    -7.0310 hc         1 0KL       0.086200
     46 H16         21.0120   -13.9150    -7.9000 hc         1 0KL       0.086200
     47 H17         21.1690   -12.2100    -6.3070 hc         1 0KL       0.039700
     48 H18         20.0020   -13.2830    -5.5730 hc         1 0KL       0.039700
     49 H19         22.9710   -13.0350    -4.9300 h1         1 0KL      -0.003800
     50 H20         21.6400   -12.4480    -3.9520 h1         1 0KL      -0.003800
     51 H21         22.4930   -14.5480    -3.1580 hn         1 0KL       0.383500
     52 H22         20.9980   -14.8110    -3.7150 hn         1 0KL       0.383500
@<TRIPOS>BOND
     1     1     2 1   
     2     2     3 1   
     3     2     4 1   
     4     2     5 1   
     5     5     6 1   
     6     6     7 1   
     7     6     8 1   
     8     6     9 1   
     9     9    10 1   
    10    10    11 1   
    11    10    12 1   
    12    10    13 1   
    13    13    14 1   
    14    14    15 1   
    15    14    35 1   
    16    14    36 1   
    17    15    16 1   
    18    15    19 1   
    19    15    37 1   
    20    16    17 1   
    21    16    18 1   
    22    16    38 1   
    23    17    39 1   
    24    18    20 1   
    25    18    40 1   
    26    18    41 1   
    27    19    20 1   
    28    20    21 1   
    29    20    42 1   
    30    21    22 1   
    31    21    25 1   
    32    22    23 2   
    33    22    24 1   
    34    24    27 1   
    35    24    43 1   
    36    25    26 2   
    37    25    44 1   
    38    26    27 1   
    39    26    29 1   
    40    27    28 2   
    41    29    30 3   
    42    30    31 1   
    43    31    32 1   
    44    31    45 1   
    45    31    46 1   
    46    32    33 1   
    47    32    47 1   
    48    32    48 1   
    49    33    34 1   
    50    33    49 1   
    51    33    50 1   
    52    34    51 1   
    53    34    52 1   
@<TRIPOS>SUBSTRUCTURE
     1 0KL         1 TEMP              0 ****  ****    0 ROOT
