@<TRIPOS>MOLECULE
0KZ
   37    39     1     0     0
SMALL
abcg2


@<TRIPOS>ATOM
      1 C2          -2.5970    -1.1350     0.2170 c          1 0KZ       0.601000
      2 N3          -3.8300    -1.7390     0.1980 ns         1 0KZ      -0.475500
      3 C4          -5.0650    -1.1600    -0.0340 c          1 0KZ       0.596200
      4 C5          -5.0090     0.2620    -0.3020 cc         1 0KZ      -0.321400
      5 C6          -3.8010     0.8540    -0.3030 cd         1 0KZ       0.023600
      6 C7          -6.2800     1.0040    -0.5540 c3         1 0KZ      -0.003900
      7 P            4.8260    -0.3170    -0.6510 p5         1 0KZ       1.269900
      8 OP1          4.9160    -1.7300    -0.0780 o          1 0KZ      -0.923500
      9 OP2          4.5930    -0.2700    -2.1600 o          1 0KZ      -0.923500
     10 O5           3.3930     0.3430     0.0260 os         1 0KZ      -0.574400
     11 C9           1.0520     0.6700    -0.1470 cx         1 0KZ      -0.047000
     12 C11         -0.2360     0.4580    -0.8850 cx         1 0KZ      -0.194700
     13 C12          0.7360     1.4950    -1.3570 cx         1 0KZ      -0.092400
     14 C1          -1.3750     0.9930    -0.0230 c5         1 0KZ       0.146700
     15 N1          -2.6150     0.2100    -0.0660 n          1 0KZ      -0.288000
     16 O2          -1.5840    -1.7580     0.4650 o          1 0KZ      -0.504000
     17 O4          -6.0810    -1.8310    -0.0030 o          1 0KZ      -0.573000
     18 C8          -0.7780     1.1340     1.3850 c5         1 0KZ      -0.140400
     19 C3           0.7370     1.3160     1.1990 c5         1 0KZ       0.203300
     20 O3           1.1510     2.6660     1.2030 oh         1 0KZ      -0.628000
     21 H1          -3.8230    -2.7310     0.3990 hn         1 0KZ       0.333500
     22 H2          -3.7080     1.9140    -0.5000 h4         1 0KZ       0.199000
     23 H3          -6.9640     0.9140     0.2910 hc         1 0KZ       0.032367
     24 H4          -6.0870     2.0640    -0.7150 hc         1 0KZ       0.032367
     25 H5          -6.8020     0.6220    -1.4330 hc         1 0KZ       0.032367
     26 H8           2.1630    -0.8010    -1.1990 h1         1 0KZ       0.001700
     27 H9           2.0050    -1.1100     0.5260 h1         1 0KZ       0.001700
     28 H10         -0.3980    -0.4170    -1.5020 hc         1 0KZ       0.099700
     29 H11          0.4790     2.5420    -1.2470 hc         1 0KZ       0.077200
     30 H12          1.3010     1.2740    -2.2560 hc         1 0KZ       0.077200
     31 H13         -1.6650     1.9780    -0.3910 h1         1 0KZ       0.043700
     32 H14         -1.2390     1.9440     1.9540 hc         1 0KZ       0.039700
     33 H15         -0.9430     0.2130     1.9450 hc         1 0KZ       0.039700
     34 H16          1.2610     0.7640     1.9890 h1         1 0KZ       0.069700
     35 H17          0.9620     3.0310     2.0730 ho         1 0KZ       0.408000
     36 OP3          5.8600     0.6690    -0.1240 o          1 0KZ      -0.923500
     37 C10          2.1870    -0.3150    -0.2130 c3         1 0KZ       0.283600
@<TRIPOS>BOND
     1     1     2 1   
     2     1    15 1   
     3     1    16 2   
     4     2     3 1   
     5     2    21 1   
     6     3     4 1   
     7     3    17 2   
     8     4     5 2   
     9     4     6 1   
    10     5    15 1   
    11     5    22 1   
    12     6    23 1   
    13     6    24 1   
    14     6    25 1   
    15     7     8 1   
    16     7     9 1   
    17     7    10 1   
    18     7    36 1   
    19    10    37 1   
    20    11    12 1   
    21    11    13 1   
    22    11    19 1   
    23    11    37 1   
    24    12    13 1   
    25    12    14 1   
    26    12    28 1   
    27    13    29 1   
    28    13    30 1   
    29    14    15 1   
    30    14    18 1   
    31    14    31 1   
    32    18    19 1   
    33    18    32 1   
    34    18    33 1   
    35    19    20 1   
    36    19    34 1   
    37    20    35 1   
    38    26    37 1   
    39    27    37 1   
@<TRIPOS>SUBSTRUCTURE
     1 0KZ         1 TEMP              0 ****  ****    0 ROOT
