@<TRIPOS>MOLECULE
0LP
   53    54     1     0     0
SMALL
abcg2


@<TRIPOS>ATOM
      1 C11        -16.3950    27.0910     7.8760 c3         1 0LP      -0.182100
      2 C10        -17.0590    26.4570     9.0750 c          1 0LP       0.615100
      3 O10        -16.7910    26.8050    10.2140 o          1 0LP      -0.601100
      4 N5         -17.9800    25.5190     8.7770 ns         1 0LP      -0.489900
      5 C5         -18.7380    24.7770     9.7490 c6         1 0LP       0.081700
      6 C4         -18.3410    23.3030     9.6990 c6         1 0LP       0.215500
      7 O4         -17.0440    23.2190    10.2540 oh         1 0LP      -0.657000
      8 C6         -20.2510    24.8690     9.5550 c6         1 0LP       0.117300
      9 C7         -20.8680    26.2850     9.5440 c3         1 0LP       0.146300
     10 O7         -20.0340    27.2940    10.0520 oh         1 0LP      -0.726000
     11 C8         -21.3920    26.7490     8.1760 c3         1 0LP       0.180300
     12 O8         -22.3350    25.8270     7.6780 oh         1 0LP      -0.652000
     13 C9         -20.3320    26.9440     7.1110 c3         1 0LP       0.167600
     14 O9         -20.9270    27.6030     6.0150 oh         1 0LP      -0.718000
     15 O6         -20.8700    24.1920    10.6430 os         1 0LP      -0.328100
     16 C2         -20.4880    22.9130    10.8780 ce         1 0LP       0.074900
     17 C1         -21.5360    22.1530    11.6940 c          1 0LP       0.723200
     18 O1B        -21.1060    21.3070    12.5000 o          1 0LP      -0.691000
     19 O1A        -22.7190    22.4630    11.4750 o          1 0LP      -0.691000
     20 C3         -19.3310    22.4180    10.4190 c2         1 0LP      -0.319400
     21 CAQ        -18.9440    20.9620    10.5180 c3         1 0LP       0.032000
     22 CAI        -18.0490    20.6400    11.6750 c2         1 0LP      -0.115200
     23 CAJ        -16.8780    20.0110    11.5640 ce         1 0LP      -0.255200
     24 CAX        -15.9710    19.6350    12.6530 ca         1 0LP      -0.006800
     25 CAN        -16.2240    19.9260    13.9990 ca         1 0LP      -0.113000
     26 CAL        -15.3310    19.5460    14.9880 ca         1 0LP      -0.114000
     27 CAK        -14.1640    18.8640    14.6620 ca         1 0LP      -0.133000
     28 CAM        -13.8990    18.5680    13.3320 ca         1 0LP      -0.114000
     29 CAO        -14.7930    18.9510    12.3420 ca         1 0LP      -0.113000
     30 H111       -15.3550    27.3170     8.1030 hc         1 0LP       0.050700
     31 H112       -16.4330    26.4720     6.9810 hc         1 0LP       0.050700
     32 H113       -16.8960    28.0350     7.6490 hc         1 0LP       0.050700
     33 HN5        -18.0620    25.2290     7.8150 hn         1 0LP       0.296500
     34 H5         -18.4890    25.1720    10.7360 h1         1 0LP       0.108700
     35 H4         -18.3120    22.9960     8.6400 h1         1 0LP       0.002700
     36 HO4        -16.6790    22.3490    10.0660 ho         1 0LP       0.441000
     37 H6         -20.5260    24.3400     8.6310 h1         1 0LP       0.060700
     38 H7         -21.7700    26.2030    10.1680 h1         1 0LP       0.055700
     39 HO7        -19.9020    27.1490    10.9940 ho         1 0LP       0.524000
     40 H8         -21.8610    27.7290     8.3500 h1         1 0LP       0.044700
     41 HO8        -23.0990    25.8200     8.2640 ho         1 0LP       0.453000
     42 H91        -19.9250    25.9680     6.8130 h1         1 0LP       0.030700
     43 H92        -19.5080    27.5290     7.5310 h1         1 0LP       0.030700
     44 HO9        -20.2420    27.7700     5.3620 ho         1 0LP       0.491000
     45 H17        -19.8410    20.3470    10.5990 hc         1 0LP       0.046200
     46 H18        -18.4530    20.6610     9.5840 hc         1 0LP       0.046200
     47 H19        -18.4320    20.9380    12.6460 ha         1 0LP       0.204000
     48 H20        -16.5390    19.7280    10.5700 ha         1 0LP       0.152000
     49 H21        -17.1250    20.4550    14.2820 ha         1 0LP       0.114500
     50 H22        -15.5480    19.7820    16.0220 ha         1 0LP       0.100500
     51 H23        -13.4700    18.5670    15.4370 ha         1 0LP       0.098000
     52 H24        -12.9950    18.0370    13.0620 ha         1 0LP       0.100500
     53 H25        -14.5760    18.7160    11.3070 ha         1 0LP       0.114500
@<TRIPOS>BOND
     1     1     2 1   
     2     1    30 1   
     3     1    31 1   
     4     1    32 1   
     5     2     3 2   
     6     2     4 1   
     7     4     5 1   
     8     4    33 1   
     9     5     6 1   
    10     5     8 1   
    11     5    34 1   
    12     6     7 1   
    13     6    20 1   
    14     6    35 1   
    15     7    36 1   
    16     8     9 1   
    17     8    15 1   
    18     8    37 1   
    19     9    10 1   
    20     9    11 1   
    21     9    38 1   
    22    10    39 1   
    23    11    12 1   
    24    11    13 1   
    25    11    40 1   
    26    12    41 1   
    27    13    14 1   
    28    13    42 1   
    29    13    43 1   
    30    14    44 1   
    31    15    16 1   
    32    16    17 1   
    33    16    20 2   
    34    17    18 1   
    35    17    19 1   
    36    20    21 1   
    37    21    22 1   
    38    21    45 1   
    39    21    46 1   
    40    22    23 2   
    41    22    47 1   
    42    23    24 1   
    43    23    48 1   
    44    24    25 ar  
    45    24    29 ar  
    46    25    26 ar  
    47    25    49 1   
    48    26    27 ar  
    49    26    50 1   
    50    27    28 ar  
    51    27    51 1   
    52    28    29 ar  
    53    28    52 1   
    54    29    53 1   
@<TRIPOS>SUBSTRUCTURE
     1 0LP         1 TEMP              0 ****  ****    0 ROOT
