@<TRIPOS>MOLECULE
0MA
   79    83     1     0     0
SMALL
abcg2


@<TRIPOS>ATOM
      1 O3          24.3120    -3.8660    54.5750 oh         1 0MA      -0.684000
      2 C3          25.3790    -2.9050    54.5240 c6         1 0MA       0.138300
      3 C4          24.9840    -1.5790    53.8290 c6         1 0MA      -0.055000
      4 C23         23.9650    -0.8730    54.7430 c3         1 0MA      -0.081100
      5 C24         24.3000    -1.8220    52.4760 c3         1 0MA      -0.081100
      6 C5          26.2750    -0.7090    53.7500 c6         1 0MA      -0.047700
      7 C6          26.0710     0.6920    53.1740 c6         1 0MA      -0.067400
      8 C7          27.2360     1.5950    53.5730 c6         1 0MA      -0.072400
      9 C8          28.6200     1.0740    53.1360 c6         1 0MA      -0.018000
     10 C26         28.7630     1.3130    51.6200 c3         1 0MA      -0.089100
     11 C14         29.7750     1.8450    53.9210 c6         1 0MA       0.006200
     12 C27         29.5980     1.7500    55.4570 c3         1 0MA      -0.082100
     13 C15         29.7610     3.3490    53.5550 c6         1 0MA      -0.062400
     14 C16         31.0110     4.1070    53.9860 c6         1 0MA      -0.038400
     15 C17         32.2780     3.5180    53.3430 c6         1 0MA      -0.153800
     16 C28         32.2330     3.7130    51.7770 c          1 0MA       0.721000
     17 O28         32.6750     2.7870    51.0540 o          1 0MA      -0.724000
     18 O29         31.8000     4.8190    51.3640 o          1 0MA      -0.724000
     19 C22         33.4870     4.3030    53.7950 c2         1 0MA      -0.132200
     20 C21         34.4440     3.8490    54.6000 c2         1 0MA      -0.285200
     21 C20         34.4440     2.4800    55.2340 c6         1 0MA      -0.003800
     22 C29         35.4740     1.5780    54.5290 c3         1 0MA      -0.076100
     23 C30         34.8390     2.6070    56.7140 c3         1 0MA      -0.076100
     24 C19         33.0290     1.8900    55.1390 c6         1 0MA      -0.058400
     25 C18         32.4150     2.0340    53.7350 c6         1 0MA      -0.007500
     26 C13         31.1310     1.2310    53.5750 c2         1 0MA      -0.045400
     27 C12         31.2300    -0.0350    53.1740 c2         1 0MA      -0.257200
     28 C11         30.0930    -0.9870    52.9830 c6         1 0MA      -0.026200
     29 C9          28.7480    -0.4420    53.4720 c6         1 0MA      -0.045700
     30 C10         27.5310    -1.3700    53.1110 c6         1 0MA      -0.024000
     31 C25         27.3840    -1.6370    51.5960 c3         1 0MA      -0.080100
     32 C1          27.7740    -2.7220    53.8120 c6         1 0MA      -0.075400
     33 C2          26.5470    -3.6110    53.8600 c6         1 0MA       0.174300
     34 O2          26.8940    -4.7930    54.5980 oh         1 0MA      -0.674000
     35 HO3         23.7200    -3.6420    55.2980 ho         1 0MA       0.440000
     36 H3          25.6820    -2.6650    55.5480 h1         1 0MA       0.038700
     37 H231        24.4180    -0.6010    55.6980 hc         1 0MA       0.033033
     38 H232        23.5740     0.0320    54.2810 hc         1 0MA       0.033033
     39 H233        23.1120    -1.5220    54.9390 hc         1 0MA       0.033033
     40 H241        23.3360    -2.3060    52.6300 hc         1 0MA       0.033033
     41 H242        24.1180    -0.8740    51.9720 hc         1 0MA       0.033033
     42 H243        24.8800    -2.4490    51.8070 hc         1 0MA       0.033033
     43 H5          26.5530    -0.5610    54.8000 hc         1 0MA       0.039700
     44 H61         25.1520     1.1330    53.5560 hc         1 0MA       0.035200
     45 H62         25.9590     0.6540    52.0910 hc         1 0MA       0.035200
     46 H71         27.0830     2.5960    53.1660 hc         1 0MA       0.039200
     47 H72         27.1980     1.6920    54.6560 hc         1 0MA       0.039200
     48 H261        28.5200     2.3410    51.3610 hc         1 0MA       0.042033
     49 H262        29.7730     1.1100    51.2710 hc         1 0MA       0.042033
     50 H263        28.0850     0.6810    51.0590 hc         1 0MA       0.042033
     51 H271        30.4070     2.2680    55.9610 hc         1 0MA       0.026700
     52 H272        28.6720     2.2190    55.7830 hc         1 0MA       0.026700
     53 H273        29.6100     0.7220    55.8090 hc         1 0MA       0.026700
     54 H151        29.6620     3.4730    52.4810 hc         1 0MA       0.042700
     55 H152        28.8800     3.8110    54.0050 hc         1 0MA       0.042700
     56 H161        31.1260     4.0850    55.0710 hc         1 0MA       0.029700
     57 H162        30.9180     5.1530    53.7010 hc         1 0MA       0.029700
     58 H22         33.5510     5.3140    53.4090 ha         1 0MA       0.177000
     59 H21         35.2860     4.4900    54.8390 ha         1 0MA       0.147000
     60 H291        35.2210     1.4300    53.4810 hc         1 0MA       0.024700
     61 H292        36.4690     2.0220    54.5750 hc         1 0MA       0.024700
     62 H293        35.5150     0.6010    55.0150 hc         1 0MA       0.024700
     63 H301        35.8450     3.0170    56.8160 hc         1 0MA       0.024700
     64 H302        34.1470     3.2600    57.2460 hc         1 0MA       0.024700
     65 H303        34.8220     1.6270    57.1960 hc         1 0MA       0.024700
     66 H191        32.4060     2.3930    55.8790 hc         1 0MA       0.025200
     67 H192        33.0540     0.8340    55.4130 hc         1 0MA       0.025200
     68 H18         33.1240     1.5950    53.0380 hc         1 0MA       0.082700
     69 H12         32.2150    -0.4270    52.9400 ha         1 0MA       0.171000
     70 H111        30.0480    -1.2540    51.9230 hc         1 0MA       0.033700
     71 H112        30.3240    -1.9210    53.5000 hc         1 0MA       0.033700
     72 H9          28.7750    -0.4970    54.5590 hc         1 0MA       0.037700
     73 H251        26.7890    -0.8850    51.0870 hc         1 0MA       0.034033
     74 H252        28.3560    -1.6690    51.1100 hc         1 0MA       0.034033
     75 H253        26.9120    -2.5970    51.4090 hc         1 0MA       0.034033
     76 H11         28.5760    -3.2690    53.3170 hc         1 0MA       0.055200
     77 H12A        28.0940    -2.5440    54.8420 hc         1 0MA       0.055200
     78 H2          26.2470    -3.9130    52.8540 h1         1 0MA       0.045700
     79 HO2         26.0670    -5.2570    54.7740 ho         1 0MA       0.448000
@<TRIPOS>BOND
     1     1     2 1   
     2     1    35 1   
     3     2     3 1   
     4     2    33 1   
     5     2    36 1   
     6     3     4 1   
     7     3     5 1   
     8     3     6 1   
     9     4    37 1   
    10     4    38 1   
    11     4    39 1   
    12     5    40 1   
    13     5    41 1   
    14     5    42 1   
    15     6     7 1   
    16     6    30 1   
    17     6    43 1   
    18     7     8 1   
    19     7    44 1   
    20     7    45 1   
    21     8     9 1   
    22     8    46 1   
    23     8    47 1   
    24     9    10 1   
    25     9    11 1   
    26     9    29 1   
    27    10    48 1   
    28    10    49 1   
    29    10    50 1   
    30    11    12 1   
    31    11    13 1   
    32    11    26 1   
    33    12    51 1   
    34    12    52 1   
    35    12    53 1   
    36    13    14 1   
    37    13    54 1   
    38    13    55 1   
    39    14    15 1   
    40    14    56 1   
    41    14    57 1   
    42    15    16 1   
    43    15    19 1   
    44    15    25 1   
    45    16    17 1   
    46    16    18 1   
    47    19    20 2   
    48    19    58 1   
    49    20    21 1   
    50    20    59 1   
    51    21    22 1   
    52    21    23 1   
    53    21    24 1   
    54    22    60 1   
    55    22    61 1   
    56    22    62 1   
    57    23    63 1   
    58    23    64 1   
    59    23    65 1   
    60    24    25 1   
    61    24    66 1   
    62    24    67 1   
    63    25    26 1   
    64    25    68 1   
    65    26    27 2   
    66    27    28 1   
    67    27    69 1   
    68    28    29 1   
    69    28    70 1   
    70    28    71 1   
    71    29    30 1   
    72    29    72 1   
    73    30    31 1   
    74    30    32 1   
    75    31    73 1   
    76    31    74 1   
    77    31    75 1   
    78    32    33 1   
    79    32    76 1   
    80    32    77 1   
    81    33    34 1   
    82    33    78 1   
    83    34    79 1   
@<TRIPOS>SUBSTRUCTURE
     1 0MA         1 TEMP              0 ****  ****    0 ROOT
