@<TRIPOS>MOLECULE
0UZ
   20    20     1     0     0
SMALL
abcg2


@<TRIPOS>ATOM
      1 N           -2.2180     1.2820     1.4720 n8         1 0UZ      -1.001200
      2 CA          -2.0510    -0.0420     0.8950 c3         1 0UZ       0.041800
      3 C           -2.8380    -0.2650    -0.4360 c          1 0UZ       0.701000
      4 O           -3.0800     0.7560    -1.1070 o          1 0UZ      -0.718500
      5 C1          -0.5940    -0.3440     0.6150 ca         1 0UZ      -0.029300
      6 C2           0.3540     0.6690     0.5460 ca         1 0UZ      -0.061000
      7 C3           1.6770     0.3830     0.2490 ca         1 0UZ       0.080000
      8 CL3          2.8380     1.6700     0.1730 cl         1 0UZ      -0.236000
      9 C4           2.1060    -0.9200     0.0190 ca         1 0UZ       0.101100
     10 O4           3.4050    -1.1350    -0.2550 oh         1 0UZ      -0.535100
     11 C5           1.1570    -1.9370     0.0970 ca         1 0UZ      -0.206000
     12 C6          -0.1660    -1.6500     0.3850 ca         1 0UZ      -0.063000
     13 H           -2.3240     1.9330     0.7010 hn         1 0UZ       0.389500
     14 H2          -3.1080     1.3100     1.9540 hn         1 0UZ       0.389500
     15 HA          -2.4050    -0.7770     1.6230 h1         1 0UZ       0.046700
     16 H6           0.0680     1.6940     0.7400 ha         1 0UZ       0.139000
     17 H7           3.5650    -2.0750    -0.3950 ho         1 0UZ       0.450000
     18 H8           1.4630    -2.9650    -0.0680 ha         1 0UZ       0.096000
     19 H9          -0.8800    -2.4620     0.4340 ha         1 0UZ       0.134000
     20 OXT         -3.1220    -1.4440    -0.7180 o          1 0UZ      -0.718500
@<TRIPOS>BOND
     1     1     2 1   
     2     1    13 1   
     3     1    14 1   
     4     2     3 1   
     5     2     5 1   
     6     2    15 1   
     7     3     4 1   
     8     3    20 1   
     9     5     6 ar  
    10     5    12 ar  
    11     6     7 ar  
    12     6    16 1   
    13     7     8 1   
    14     7     9 ar  
    15     9    10 1   
    16     9    11 ar  
    17    10    17 1   
    18    11    12 ar  
    19    11    18 1   
    20    12    19 1   
@<TRIPOS>SUBSTRUCTURE
     1 0UZ         1 TEMP              0 ****  ****    0 ROOT
