@<TRIPOS>MOLECULE
0WK
   26    26     1     0     0
SMALL
abcg2


@<TRIPOS>ATOM
      1 C1           3.2080   -17.6670    61.8570 c6         1 0WK       0.132600
      2 C2           4.0020   -16.9570    60.7660 c6         1 0WK       0.082300
      3 C3           3.1740   -15.8120    60.2010 c6         1 0WK       0.166300
      4 C4           1.8110   -16.3240    59.7560 c6         1 0WK       0.150300
      5 C5           1.1410   -17.0880    60.9110 c6         1 0WK       0.075300
      6 C6          -0.1890   -17.7080    60.4970 c3         1 0WK       0.271600
      7 O2           5.1990   -16.4060    61.2660 oh         1 0WK      -0.740000
      8 O3           3.8120   -15.1950    59.1090 oh         1 0WK      -0.664000
      9 O4           1.0480   -15.2040    59.3650 oh         1 0WK      -0.714000
     10 O5           1.9850   -18.1340    61.3520 os         1 0WK      -0.410000
     11 O6          -0.8620   -18.3540    61.5310 os         1 0WK      -0.564400
     12 P           -1.9000   -17.4510    62.5730 p5         1 0WK       1.264900
     13 O1P         -2.7740   -16.6230    61.6340 o          1 0WK      -0.921167
     14 O2P         -2.6140   -18.5880    63.2920 o          1 0WK      -0.921167
     15 O3P         -0.9680   -16.6180    63.4520 o          1 0WK      -0.921167
     16 H1           3.7620   -18.5320    62.2280 h1         1 0WK       0.041700
     17 H2A          3.0570   -16.9780    62.7020 h1         1 0WK       0.041700
     18 H2           4.2030   -17.6730    59.9550 h1         1 0WK       0.031700
     19 H3           3.0060   -15.0870    61.0170 h1         1 0WK       0.061700
     20 H4           1.9570   -17.0180    58.9140 h1         1 0WK       0.019700
     21 H5           0.9650   -16.3800    61.7330 h1         1 0WK       0.110700
     22 H61         -0.8110   -16.9250    60.0470 h1         1 0WK      -0.011800
     23 H62          0.0200   -18.4380    59.7000 h1         1 0WK      -0.011800
     24 HO2          5.8380   -17.1150    61.3900 ho         1 0WK       0.489000
     25 HO3          4.6880   -14.9220    59.4000 ho         1 0WK       0.429000
     26 HO4          0.3270   -15.5010    58.8030 ho         1 0WK       0.510000
@<TRIPOS>BOND
     1     1     2 1   
     2     1    10 1   
     3     1    16 1   
     4     1    17 1   
     5     2     3 1   
     6     2     7 1   
     7     2    18 1   
     8     3     4 1   
     9     3     8 1   
    10     3    19 1   
    11     4     5 1   
    12     4     9 1   
    13     4    20 1   
    14     5     6 1   
    15     5    10 1   
    16     5    21 1   
    17     6    11 1   
    18     6    22 1   
    19     6    23 1   
    20     7    24 1   
    21     8    25 1   
    22     9    26 1   
    23    11    12 1   
    24    12    13 1   
    25    12    14 1   
    26    12    15 1   
@<TRIPOS>SUBSTRUCTURE
     1 0WK         1 TEMP              0 ****  ****    0 ROOT
