@<TRIPOS>MOLECULE
T2T
   78    81     1     0     0
SMALL
abcg2


@<TRIPOS>ATOM
      1 P            3.4850    -2.3560   -10.4050 p5         1 T2T       1.277900
      2 OP1          3.5820    -2.2490   -11.9180 o          1 T2T      -0.923500
      3 OP2          2.1070    -2.7640    -9.8730 o          1 T2T      -0.923500
      4 C4           6.8140    -4.4960    -8.0070 c          1 T2T       0.639200
      5 N3           5.7000    -5.2930    -8.1530 ns         1 T2T      -0.417500
      6 C2           4.4680    -5.1150    -7.5880 c          1 T2T       0.677000
      7 N1           4.4320    -4.1550    -6.6000 n          1 T2T      -0.292000
      8 C6           5.5310    -3.3860    -6.3210 cc         1 T2T       0.008600
      9 C5           6.6990    -3.4840    -6.9740 cd         1 T2T      -0.256400
     10 O5           3.6560    -0.7100    -9.9470 os         1 T2T      -0.561400
     11 C9           3.6310    -0.4500    -8.5800 c3         1 T2T       0.250600
     12 C4X          2.9070     0.8440    -8.2770 c5         1 T2T       0.146300
     13 O4X          1.5850     0.8240    -8.8410 os         1 T2T      -0.401000
     14 C1X          0.6500     1.3330    -7.9540 c5         1 T2T       0.345700
     15 N1B         -0.2500     0.2370    -7.4950 n          1 T2T      -0.324000
     16 C6B          0.0120    -1.0830    -7.7350 cc         1 T2T       0.026600
     17 C2B         -1.3780     0.6270    -6.8190 c          1 T2T       0.605000
     18 O2B         -1.6650     1.7940    -6.6250 o          1 T2T      -0.626000
     19 N3B         -2.1630    -0.4010    -6.3690 ns         1 T2T      -0.470500
     20 C4B         -1.9560    -1.7600    -6.5350 c          1 T2T       0.584200
     21 O4B         -2.7450    -2.5650    -6.0710 o          1 T2T      -0.589000
     22 C5B         -0.7680    -2.0900    -7.2900 cd         1 T2T      -0.284400
     23 CAB         -0.4540    -3.5280    -7.5510 c3         1 T2T      -0.030900
     24 C2X          1.4350     1.9340    -6.7930 c5         1 T2T      -0.124400
     25 C3X          2.6940     1.0790    -6.7860 c5         1 T2T      -0.120700
     26 CH2          3.8870     1.6900    -6.0690 c3         1 T2T      -0.052400
     27 CP           3.6570     1.9200    -4.5710 c3         1 T2T      -0.148700
     28 C2P          4.9350     2.4180    -3.8940 c3         1 T2T      -0.084100
     29 CX           3.1120     0.6820    -3.8720 c          1 T2T       0.609100
     30 OX           2.0500     0.6880    -3.2630 o          1 T2T      -0.619100
     31 N5X          3.8830    -0.4190    -3.9580 ns         1 T2T      -0.495900
     32 C5X          3.5290    -1.6880    -3.3740 c3         1 T2T       0.095000
     33 C7           2.5160    -2.4780    -4.1980 c5         1 T2T       0.140300
     34 O4           2.9820    -2.6620    -5.5410 os         1 T2T      -0.424000
     35 C1           3.2240    -4.0160    -5.8030 c5         1 T2T       0.351700
     36 O2           3.5120    -5.7990    -7.8940 o          1 T2T      -0.555000
     37 C5A          7.8640    -2.5950    -6.6920 c3         1 T2T      -0.003900
     38 C8           3.3310    -4.6720    -4.4270 c5         1 T2T       0.058300
     39 O6           3.1080    -6.0410    -4.5240 os         1 T2T      -0.413000
     40 CH3          3.5670    -6.7740    -3.4070 c3         1 T2T       0.144900
     41 C3           2.2850    -3.8770    -3.6380 c5         1 T2T       0.115300
     42 O3           0.9820    -4.2810    -3.9670 oh         1 T2T      -0.689000
     43 OP3          4.6480    -3.0710    -9.7180 o          1 T2T      -0.923500
     44 H6           5.4030    -2.6600    -5.5310 h4         1 T2T       0.169000
     45 H5           3.1360    -1.2490    -8.0160 h1         1 T2T      -0.003800
     46 H5'          4.6450    -0.3630    -8.1590 h1         1 T2T      -0.003800
     47 H4X          3.4470     1.6930    -8.7190 h1         1 T2T       0.037700
     48 H1X          0.0160     2.0620    -8.4610 h2         1 T2T       0.077700
     49 H6B          0.8850    -1.3040    -8.3370 h4         1 T2T       0.313000
     50 H3B         -2.9930    -0.1230    -5.8600 hn         1 T2T       0.310500
     51 HAB1         0.4320    -3.6170    -8.1750 hc         1 T2T       0.056700
     52 HAB2        -1.2790    -4.0350    -8.0540 hc         1 T2T       0.056700
     53 HAB3        -0.2670    -4.0650    -6.6200 hc         1 T2T       0.056700
     54 H2X1         0.8890     1.9280    -5.8520 hc         1 T2T       0.055200
     55 H2X2         1.6810     2.9740    -7.0270 hc         1 T2T       0.055200
     56 H3X          2.4590     0.1110    -6.3260 hc         1 T2T       0.081700
     57 HH21         4.1300     2.6540    -6.5270 hc         1 T2T       0.045700
     58 HH22         4.7670     1.0560    -6.2170 hc         1 T2T       0.045700
     59 H1P          2.8870     2.6860    -4.4520 hc         1 T2T       0.075700
     60 H2P1         5.7550     1.7060    -4.0060 hc         1 T2T       0.030700
     61 H2P2         5.2520     3.3570    -4.3480 hc         1 T2T       0.030700
     62 H2P3         4.7840     2.5970    -2.8300 hc         1 T2T       0.030700
     63 H5X          4.7420    -0.3730    -4.4810 hn         1 T2T       0.324500
     64 H5X1         4.4530    -2.2550    -3.2520 h1         1 T2T       0.041200
     65 H5X2         3.1160    -1.5370    -2.3750 h1         1 T2T       0.041200
     66 H4           1.5770    -1.9190    -4.2400 h1         1 T2T       0.112700
     67 H1           2.4100    -4.4630    -6.3780 h2         1 T2T       0.146700
     68 H5A1         7.6350    -1.8960    -5.8890 hc         1 T2T       0.026033
     69 H5A2         8.1380    -2.0100    -7.5720 hc         1 T2T       0.026033
     70 H5A3         8.7470    -3.1660    -6.3990 hc         1 T2T       0.026033
     71 H2           4.3270    -4.4650    -4.0060 h1         1 T2T       0.038700
     72 HH31         3.3870    -7.8280    -3.6120 h1         1 T2T       0.024033
     73 HH32         3.0410    -6.5060    -2.4860 h1         1 T2T       0.024033
     74 HH33         4.6400    -6.6270    -3.2450 h1         1 T2T       0.024033
     75 H3           2.4600    -3.9140    -2.5550 h1         1 T2T       0.029700
     76 HO3          0.9140    -5.2360    -3.8530 ho         1 T2T       0.512000
     77 O1           7.8110    -4.6890    -8.6810 o          1 T2T      -0.583000
     78 HN3          5.7320    -5.9770    -8.8990 hn         1 T2T       0.337500
@<TRIPOS>BOND
     1     1     2 1   
     2     1     3 1   
     3     1    10 1   
     4     1    43 1   
     5     4     5 1   
     6     4     9 1   
     7     4    77 2   
     8     5     6 1   
     9     5    78 1   
    10     6     7 1   
    11     6    36 2   
    12     7     8 1   
    13     7    35 1   
    14     8     9 2   
    15     8    44 1   
    16     9    37 1   
    17    10    11 1   
    18    11    12 1   
    19    11    45 1   
    20    11    46 1   
    21    12    13 1   
    22    12    25 1   
    23    12    47 1   
    24    13    14 1   
    25    14    15 1   
    26    14    24 1   
    27    14    48 1   
    28    15    16 1   
    29    15    17 1   
    30    16    22 2   
    31    16    49 1   
    32    17    18 2   
    33    17    19 1   
    34    19    20 1   
    35    19    50 1   
    36    20    21 2   
    37    20    22 1   
    38    22    23 1   
    39    23    51 1   
    40    23    52 1   
    41    23    53 1   
    42    24    25 1   
    43    24    54 1   
    44    24    55 1   
    45    25    26 1   
    46    25    56 1   
    47    26    27 1   
    48    26    57 1   
    49    26    58 1   
    50    27    28 1   
    51    27    29 1   
    52    27    59 1   
    53    28    60 1   
    54    28    61 1   
    55    28    62 1   
    56    29    30 2   
    57    29    31 1   
    58    31    32 1   
    59    31    63 1   
    60    32    33 1   
    61    32    64 1   
    62    32    65 1   
    63    33    34 1   
    64    33    41 1   
    65    33    66 1   
    66    34    35 1   
    67    35    38 1   
    68    35    67 1   
    69    37    68 1   
    70    37    69 1   
    71    37    70 1   
    72    38    39 1   
    73    38    41 1   
    74    38    71 1   
    75    39    40 1   
    76    40    72 1   
    77    40    73 1   
    78    40    74 1   
    79    41    42 1   
    80    41    75 1   
    81    42    76 1   
@<TRIPOS>SUBSTRUCTURE
     1 T2T         1 TEMP              0 ****  ****    0 ROOT
