@<TRIPOS>MOLECULE
T32
   39    40     1     0     0
SMALL
abcg2


@<TRIPOS>ATOM
      1 P            9.3530    14.6060    10.9070 p5         1 T32       1.262900
      2 O1P          9.8550    13.4910    10.0000 o          1 T32      -0.917500
      3 O2P          8.6000    14.1720    12.1590 o          1 T32      -0.917500
      4 O3P         10.3790    15.7180    11.1650 o          1 T32      -0.917500
      5 O5           8.1640    15.3150     9.9020 os         1 T32      -0.600400
      6 C5           7.3840    16.3700    10.3790 c3         1 T32       0.257600
      7 C4           7.4710    17.5990     9.4780 c5         1 T32      -0.074700
      8 C3           7.1480    17.2840     8.0090 c5         1 T32       0.173300
      9 O3           6.4540    18.4010     7.4760 oh         1 T32      -0.689000
     10 C2           8.5130    17.1190     7.3520 c5         1 T32      -0.128400
     11 C1           9.3280    18.2290     8.0080 c5         1 T32       0.114700
     12 N1          10.7750    18.0840     7.8240 n          1 T32      -0.284000
     13 C9          11.4550    18.9730     7.0300 c          1 T32       0.606000
     14 O2          10.9400    19.9300     6.4830 o          1 T32      -0.618000
     15 N3          12.7940    18.7030     6.8930 ns         1 T32      -0.475500
     16 C8          13.5130    17.6430     7.4210 c          1 T32       0.584200
     17 O4          14.7060    17.5300     7.1930 o          1 T32      -0.598000
     18 C7          12.7250    16.7430     8.2310 cc         1 T32      -0.295400
     19 C5M         13.3790    15.5580     8.8640 c3         1 T32      -0.015900
     20 C6          11.4150    17.0150     8.3890 cd         1 T32       0.030600
     21 C            8.8820    18.2350     9.4820 c5         1 T32      -0.093700
     22 CM           8.9340    19.6210    10.1030 c3         1 T32      -0.068100
     23 H5'1         7.6640    16.6750    11.3960 h1         1 T32      -0.002800
     24 H5'2         6.3300    16.0590    10.4370 h1         1 T32      -0.002800
     25 H4           6.7300    18.3150     9.8510 hc         1 T32       0.029700
     26 H3           6.5410    16.3750     7.9090 h1         1 T32       0.056700
     27 HA           6.3570    18.2670     6.5270 ho         1 T32       0.414000
     28 H2'1         8.4860    17.1960     6.2620 hc         1 T32       0.065700
     29 H2'2         8.9210    16.1400     7.6090 hc         1 T32       0.065700
     30 H1           9.0610    19.1800     7.5510 h1         1 T32       0.067700
     31 H7          13.3080    19.3580     6.3170 hn         1 T32       0.308500
     32 H5M1        13.8010    14.8870     8.1130 hc         1 T32       0.049033
     33 H5M2        12.6580    14.9930     9.4520 hc         1 T32       0.049033
     34 H5M3        14.1960    15.8520     9.5240 hc         1 T32       0.049033
     35 H6          10.8070    16.3860     9.0290 h4         1 T32       0.310000
     36 H            9.5380    17.5790    10.0610 hc         1 T32       0.148700
     37 HM'1         9.9440    20.0360    10.0670 hc         1 T32       0.018367
     38 HM'2         8.6330    19.5890    11.1520 hc         1 T32       0.018367
     39 HM'3         8.2670    20.3150     9.5870 hc         1 T32       0.018367
@<TRIPOS>BOND
     1     1     2 1   
     2     1     3 1   
     3     1     4 1   
     4     1     5 1   
     5     5     6 1   
     6     6     7 1   
     7     6    23 1   
     8     6    24 1   
     9     7     8 1   
    10     7    21 1   
    11     7    25 1   
    12     8     9 1   
    13     8    10 1   
    14     8    26 1   
    15     9    27 1   
    16    10    11 1   
    17    10    28 1   
    18    10    29 1   
    19    11    12 1   
    20    11    21 1   
    21    11    30 1   
    22    12    13 1   
    23    12    20 1   
    24    13    14 2   
    25    13    15 1   
    26    15    16 1   
    27    15    31 1   
    28    16    17 2   
    29    16    18 1   
    30    18    19 1   
    31    18    20 2   
    32    19    32 1   
    33    19    33 1   
    34    19    34 1   
    35    20    35 1   
    36    21    22 1   
    37    21    36 1   
    38    22    37 1   
    39    22    38 1   
    40    22    39 1   
@<TRIPOS>SUBSTRUCTURE
     1 T32         1 TEMP              0 ****  ****    0 ROOT
