@<TRIPOS>MOLECULE
T5S
   35    36     1     0     0
SMALL
abcg2


@<TRIPOS>ATOM
      1 OP3         34.0970    17.8700     9.5420 o          1 T5S      -0.894833
      2 P           33.9150    16.4380    10.0090 p5         1 T5S       1.295900
      3 OP1         34.4990    15.4080     9.0110 o          1 T5S      -0.894833
      4 OP2         32.5440    16.0710    10.5490 o          1 T5S      -0.894833
      5 O5          34.8960    16.3040    11.4130 os         1 T5S      -0.595400
      6 N1          34.8580    13.1610    14.1400 n          1 T5S      -0.318000
      7 C6          34.1180    14.2970    14.1040 cc         1 T5S       0.082600
      8 C2          34.4740    12.0810    14.9070 c          1 T5S       0.610000
      9 O2          35.1020    11.0430    14.9390 o          1 T5S      -0.607000
     10 N3          33.3260    12.2710    15.6280 ns         1 T5S      -0.475500
     11 C4          32.5050    13.3890    15.6560 c          1 T5S       0.600200
     12 O4          31.5000    13.3940    16.3390 o          1 T5S      -0.569000
     13 C5          32.9800    14.4690    14.8150 cd         1 T5S      -0.150600
     14 SE          32.0430    16.1100    14.7590 ss         1 T5S      -0.442600
     15 CH3         30.6780    15.6180    13.4440 c3         1 T5S       0.109900
     16 C7          35.8170    12.3000    12.0010 c5         1 T5S      -0.136400
     17 C9          36.2410    15.9550    11.2710 c3         1 T5S       0.248600
     18 C8          36.5230    14.4950    11.5920 c5         1 T5S       0.082300
     19 O1          36.5790    14.2750    13.0110 os         1 T5S      -0.468000
     20 C1          36.0950    13.0080    13.3240 c5         1 T5S       0.340700
     21 C3          35.4900    13.4800    11.0990 c5         1 T5S       0.183300
     22 O3          35.5500    13.2250     9.7390 oh         1 T5S      -0.828000
     23 H6          34.4890    15.0810    13.4600 h4         1 T5S       0.297000
     24 HN3         33.0360    11.4820    16.1950 hn         1 T5S       0.313500
     25 HH3         29.9410    16.4210    13.4180 h1         1 T5S       0.071033
     26 HH3A        31.1330    15.5150    12.4600 h1         1 T5S       0.071033
     27 HH3B        30.1840    14.6960    13.7430 h1         1 T5S       0.071033
     28 H2          35.0240    11.5570    12.0760 hc         1 T5S       0.053200
     29 H2'A        36.7250    11.7960    11.6590 hc         1 T5S       0.053200
     30 H5          36.6150    16.1330    10.2570 h1         1 T5S       0.008700
     31 H5'A        36.8560    16.5800    11.9310 h1         1 T5S       0.008700
     32 H4          37.5030    14.2400    11.1640 h1         1 T5S       0.022700
     33 H1          36.8080    12.4770    13.9550 h2         1 T5S       0.065700
     34 H3          34.4900    13.8470    11.3800 h1         1 T5S       0.063700
     35 HO3         35.1280    14.0580     9.3390 ho         1 T5S       0.625000
@<TRIPOS>BOND
     1     1     2 1   
     2     2     3 1   
     3     2     4 1   
     4     2     5 1   
     5     5    17 1   
     6     6     7 1   
     7     6     8 1   
     8     6    20 1   
     9     7    13 2   
    10     7    23 1   
    11     8     9 2   
    12     8    10 1   
    13    10    11 1   
    14    10    24 1   
    15    11    12 2   
    16    11    13 1   
    17    13    14 1   
    18    14    15 1   
    19    15    25 1   
    20    15    26 1   
    21    15    27 1   
    22    16    20 1   
    23    16    21 1   
    24    16    28 1   
    25    16    29 1   
    26    17    18 1   
    27    17    30 1   
    28    17    31 1   
    29    18    19 1   
    30    18    21 1   
    31    18    32 1   
    32    19    20 1   
    33    20    33 1   
    34    21    22 1   
    35    21    34 1   
    36    22    35 1   
@<TRIPOS>SUBSTRUCTURE
     1 T5S         1 TEMP              0 ****  ****    0 ROOT
