@<TRIPOS>MOLECULE
TA3
   35    37     1     0     0
SMALL
abcg2


@<TRIPOS>ATOM
      1 OP3         -1.9580    -0.0780    24.5760 o          1 TA3      -0.920500
      2 P           -2.0190    -1.1390    25.6750 p5         1 TA3       1.266900
      3 OP1         -1.8230    -0.5930    27.0860 o          1 TA3      -0.920500
      4 OP2         -1.2770    -2.4340    25.3690 o          1 TA3      -0.920500
      5 O5          -3.6540    -1.6800    25.6510 os         1 TA3      -0.594400
      6 C5          -4.6180    -0.8020    26.1350 c3         1 TA3       0.244600
      7 C4          -5.9840    -1.0460    25.5170 c5         1 TA3       0.124300
      8 O4          -6.0160    -0.6610    24.1450 os         1 TA3      -0.458000
      9 C3          -6.4520    -2.5070    25.5460 c5         1 TA3       0.138300
     10 O3          -7.8610    -2.6090    25.5960 oh         1 TA3      -0.754000
     11 C2          -6.0070    -3.0090    24.1880 c5         1 TA3      -0.108400
     12 C1          -6.2020    -1.7800    23.3050 c5         1 TA3       0.366700
     13 N1          -5.3130    -1.7260    22.1950 nj         1 TA3      -0.430800
     14 C9          -5.4750    -1.3710    20.8910 c          1 TA3       0.554000
     15 O2          -6.4340    -1.1610    20.1950 o          1 TA3      -0.579000
     16 N3          -4.0790    -1.3650    20.6220 nj         1 TA3      -0.299800
     17 C8          -3.5720    -2.6880    20.1270 cy         1 TA3       0.001000
     18 C7          -3.2950    -3.1540    21.5720 cy         1 TA3      -0.098700
     19 C5M         -1.8360    -3.3690    21.9180 c3         1 TA3      -0.093100
     20 C6          -3.8760    -1.8010    22.0320 cy         1 TA3       0.193100
     21 H5          -4.3600     0.2510    25.9500 h1         1 TA3       0.005200
     22 H5'         -4.7450    -0.8940    27.2250 h1         1 TA3       0.005200
     23 H4          -6.6950    -0.4140    26.0660 h1         1 TA3       0.014700
     24 H3          -5.9870    -3.0620    26.3690 h1         1 TA3       0.068700
     25 HO3         -8.1690    -2.2010    26.4110 ho         1 TA3       0.484000
     26 H2          -6.5860    -3.8640    23.8390 hc         1 TA3       0.075700
     27 H2'         -4.9570    -3.2950    24.2260 hc         1 TA3       0.075700
     28 H1          -7.2110    -1.7630    22.8770 h2         1 TA3       0.045700
     29 H41         -2.6790    -2.5700    19.5140 h1         1 TA3       0.043700
     30 H42         -4.3110    -3.2540    19.5580 h1         1 TA3       0.043700
     31 H8          -3.8950    -4.0070    21.8940 hc         1 TA3       0.053700
     32 H71         -1.4630    -4.2860    21.4620 hc         1 TA3       0.056700
     33 H72         -1.2190    -2.5440    21.5550 hc         1 TA3       0.056700
     34 H73         -1.6940    -3.4360    22.9970 hc         1 TA3       0.056700
     35 H6          -3.2850    -1.1760    22.7040 h2         1 TA3       0.205700
@<TRIPOS>BOND
     1     1     2 1   
     2     2     3 1   
     3     2     4 1   
     4     2     5 1   
     5     5     6 1   
     6     6     7 1   
     7     6    21 1   
     8     6    22 1   
     9     7     8 1   
    10     7     9 1   
    11     7    23 1   
    12     8    12 1   
    13     9    10 1   
    14     9    11 1   
    15     9    24 1   
    16    10    25 1   
    17    11    12 1   
    18    11    26 1   
    19    11    27 1   
    20    12    13 1   
    21    12    28 1   
    22    13    14 1   
    23    13    20 1   
    24    14    15 2   
    25    14    16 1   
    26    16    17 1   
    27    16    20 1   
    28    17    18 1   
    29    17    29 1   
    30    17    30 1   
    31    18    19 1   
    32    18    20 1   
    33    18    31 1   
    34    19    32 1   
    35    19    33 1   
    36    19    34 1   
    37    20    35 1   
@<TRIPOS>SUBSTRUCTURE
     1 TA3         1 TEMP              0 ****  ****    0 ROOT
