@<TRIPOS>MOLECULE
TAF
   34    35     1     0     0
SMALL
abcg2


@<TRIPOS>ATOM
      1 P           15.4560    -6.4760    21.8810 p5         1 TAF       1.256900
      2 OP1         16.3500    -7.3370    20.9940 o          1 TAF      -0.914500
      3 OP2         15.0290    -7.1000    23.2010 o          1 TAF      -0.914500
      4 OP3         14.3430    -5.7490    21.1150 o          1 TAF      -0.914500
      5 O5          16.4760    -5.2180    22.4460 os         1 TAF      -0.575400
      6 N1          14.0160    -2.4060    23.9300 n          1 TAF      -0.299000
      7 C6          13.4380    -3.5480    23.4380 cc         1 TAF       0.053600
      8 C2          13.4200    -1.6690    24.9230 c          1 TAF       0.609000
      9 O2          13.9490    -0.7050    25.4420 o          1 TAF      -0.629000
     10 N3          12.1760    -2.1060    25.2890 ns         1 TAF      -0.470500
     11 C4          11.5010    -3.2240    24.8240 c          1 TAF       0.584200
     12 O4          10.3940    -3.4960    25.2530 o          1 TAF      -0.594000
     13 C5          12.2250    -3.9850    23.8300 cd         1 TAF      -0.283400
     14 C5M         11.6010    -5.2260    23.2790 c3         1 TAF      -0.021900
     15 F2          16.0640    -3.7630    24.9480 f          1 TAF      -0.207000
     16 C7          16.4530    -2.5510    24.4160 c5         1 TAF       0.167300
     17 C9          16.9890    -4.3090    21.5350 c3         1 TAF       0.251600
     18 C8          16.9520    -2.8940    22.0800 c5         1 TAF       0.126300
     19 O1          15.6030    -2.4420    22.2270 os         1 TAF      -0.434000
     20 C1          15.3520    -1.9870    23.5150 c5         1 TAF       0.326700
     21 C3          17.6210    -2.6980    23.4520 c5         1 TAF       0.105300
     22 O3          18.3210    -1.4770    23.5330 oh         1 TAF      -0.748000
     23 H6          13.9910    -4.0860    22.6760 h4         1 TAF       0.319000
     24 H3          11.7180    -1.5590    26.0080 hn         1 TAF       0.308500
     25 H71         10.6410    -5.0130    22.8080 hc         1 TAF       0.054367
     26 H72         12.2540    -5.6790    22.5360 hc         1 TAF       0.054367
     27 H73         11.4160    -5.9600    24.0650 hc         1 TAF       0.054367
     28 H2          16.6880    -1.8820    25.2440 h1         1 TAF       0.059700
     29 H5          18.0430    -4.5190    21.2900 h1         1 TAF       0.003700
     30 H5'         16.4500    -4.3120    20.5790 h1         1 TAF       0.003700
     31 H4          17.4480    -2.2480    21.3440 h1         1 TAF       0.013700
     32 H1          15.3760    -0.8940    23.5550 h2         1 TAF       0.064700
     33 H8          18.2560    -3.5500    23.7200 h1         1 TAF       0.093700
     34 HO'3        19.0010    -1.4660    22.8520 ho         1 TAF       0.494000
@<TRIPOS>BOND
     1     1     2 1   
     2     1     3 1   
     3     1     4 1   
     4     1     5 1   
     5     5    17 1   
     6     6     7 1   
     7     6     8 1   
     8     6    20 1   
     9     7    13 2   
    10     7    23 1   
    11     8     9 2   
    12     8    10 1   
    13    10    11 1   
    14    10    24 1   
    15    11    12 2   
    16    11    13 1   
    17    13    14 1   
    18    14    25 1   
    19    14    26 1   
    20    14    27 1   
    21    15    16 1   
    22    16    20 1   
    23    16    21 1   
    24    16    28 1   
    25    17    18 1   
    26    17    29 1   
    27    17    30 1   
    28    18    19 1   
    29    18    21 1   
    30    18    31 1   
    31    19    20 1   
    32    20    32 1   
    33    21    22 1   
    34    21    33 1   
    35    22    34 1   
@<TRIPOS>SUBSTRUCTURE
     1 TAF         1 TEMP              0 ****  ****    0 ROOT
