@<TRIPOS>MOLECULE
TIP
   62    63     1     0     0
SMALL
abcg2


@<TRIPOS>ATOM
      1 C2         -20.3310   -18.4550    24.5600 c6         1 TIP      -0.068400
      2 C5         -19.8470   -16.4200    22.4230 c2         1 TIP      -0.127400
      3 C4         -20.7500   -16.1070    23.6190 c6         1 TIP      -0.000800
      4 C6         -19.7390   -15.5800    21.3940 c2         1 TIP      -0.204200
      5 C7         -18.8360   -15.7960    20.2230 c6         1 TIP      -0.046200
      6 PA         -12.4950   -20.0340    17.8840 p5         1 TIP       1.465800
      7 O1A        -12.9670   -20.5500    16.5540 o          1 TIP      -0.880500
      8 O2A        -11.0360   -20.1240    18.2470 o          1 TIP      -0.880500
      9 O3A        -13.1070   -18.5840    18.2140 os         1 TIP      -0.744800
     10 PB         -12.6520   -17.0400    17.5550 p5         1 TIP       1.357900
     11 O1B        -11.6560   -17.3690    16.4510 o          1 TIP      -0.952500
     12 O2B        -12.0660   -16.3200    18.7610 o          1 TIP      -0.952500
     13 O3B        -13.9920   -16.4960    17.0720 o          1 TIP      -0.952500
     14 O          -13.3550   -20.9370    18.9860 os         1 TIP      -0.593400
     15 C15        -13.1640   -20.7360    20.3780 c3         1 TIP       0.263800
     16 C14        -14.2130   -19.8260    20.9350 c2         1 TIP      -0.119200
     17 C13        -15.2270   -20.1300    21.7490 c2         1 TIP      -0.251400
     18 C16        -15.4790   -21.4780    22.3560 c3         1 TIP      -0.013900
     19 C12        -16.2680   -19.0820    22.0530 c3         1 TIP      -0.015200
     20 C11        -17.5310   -19.3190    21.2120 c3         1 TIP      -0.071400
     21 C9         -18.5190   -18.1440    21.0800 c6         1 TIP      -0.028000
     22 C20        -19.6450   -18.6240    20.1540 c3         1 TIP      -0.079100
     23 C10        -19.0830   -17.7330    22.4620 c6         1 TIP      -0.009500
     24 C1         -19.9480   -18.8140    23.1170 c6         1 TIP      -0.068400
     25 C3         -20.2960   -16.9490    24.8170 c6         1 TIP      -0.062400
     26 C18        -20.6580   -14.6330    24.0230 c3         1 TIP      -0.075600
     27 C19        -22.2130   -16.4190    23.2720 c3         1 TIP      -0.075600
     28 C8         -17.8190   -16.9020    20.4770 c6         1 TIP      -0.051700
     29 C17        -16.9870   -17.1650    19.2270 c3         1 TIP      -0.102100
     30 H1         -21.3250   -18.8510    24.7790 hc         1 TIP       0.020700
     31 H2         -19.6520   -18.9460    25.2600 hc         1 TIP       0.020700
     32 H3         -20.3200   -14.6630    21.3870 ha         1 TIP       0.140000
     33 H4         -18.3060   -14.8640    19.9990 hc         1 TIP       0.047200
     34 H5         -19.4260   -16.0100    19.3220 hc         1 TIP       0.047200
     35 H9         -13.1930   -21.7150    20.8620 h1         1 TIP       0.003700
     36 H10        -12.1690   -20.3220    20.5800 h1         1 TIP       0.003700
     37 H11        -14.1540   -18.8030    20.5770 ha         1 TIP       0.230000
     38 H12        -16.4670   -21.8550    22.0810 hc         1 TIP       0.004367
     39 H13        -14.7470   -22.2310    22.0710 hc         1 TIP       0.004367
     40 H14        -15.4720   -21.4050    23.4470 hc         1 TIP       0.004367
     41 H15        -16.5200   -19.0940    23.1190 hc         1 TIP       0.025700
     42 H16        -15.8550   -18.0950    21.8410 hc         1 TIP       0.025700
     43 H17        -18.0650   -20.1890    21.6030 hc         1 TIP       0.044200
     44 H18        -17.2200   -19.6060    20.2040 hc         1 TIP       0.044200
     45 H19        -20.0480   -19.5830    20.4860 hc         1 TIP       0.022367
     46 H20        -20.4800   -17.9240    20.1060 hc         1 TIP       0.022367
     47 H21        -19.2790   -18.7760    19.1370 hc         1 TIP       0.022367
     48 H22        -18.2190   -17.5780    23.1270 hc         1 TIP       0.059700
     49 H23        -20.8510   -18.9630    22.5210 hc         1 TIP       0.039200
     50 H24        -19.4240   -19.7710    23.1090 hc         1 TIP       0.039200
     51 H25        -19.2770   -16.6460    25.0810 hc         1 TIP       0.028200
     52 H26        -20.9150   -16.7040    25.6850 hc         1 TIP       0.028200
     53 H27        -21.2690   -14.4480    24.9100 hc         1 TIP       0.024200
     54 H28        -19.6310   -14.3500    24.2590 hc         1 TIP       0.024200
     55 H29        -21.0190   -13.9650    23.2410 hc         1 TIP       0.024200
     56 H30        -22.8590   -16.2400    24.1350 hc         1 TIP       0.024200
     57 H31        -22.5560   -15.7780    22.4570 hc         1 TIP       0.024200
     58 H32        -22.3610   -17.4520    22.9560 hc         1 TIP       0.024200
     59 H33        -17.1360   -16.5170    21.2440 hc         1 TIP       0.048700
     60 H34        -16.1370   -17.8190    19.4210 hc         1 TIP       0.070367
     61 H35        -17.5760   -17.6170    18.4270 hc         1 TIP       0.070367
     62 H36        -16.5820   -16.2280    18.8400 hc         1 TIP       0.070367
@<TRIPOS>BOND
     1     1    24 1   
     2     1    25 1   
     3     1    30 1   
     4     1    31 1   
     5     2     3 1   
     6     2     4 2   
     7     2    23 1   
     8     3    25 1   
     9     3    26 1   
    10     3    27 1   
    11     4     5 1   
    12     4    32 1   
    13     5    28 1   
    14     5    33 1   
    15     5    34 1   
    16     6     7 1   
    17     6     8 1   
    18     6     9 1   
    19     6    14 1   
    20     9    10 1   
    21    10    11 1   
    22    10    12 1   
    23    10    13 1   
    24    14    15 1   
    25    15    16 1   
    26    15    35 1   
    27    15    36 1   
    28    16    17 2   
    29    16    37 1   
    30    17    18 1   
    31    17    19 1   
    32    18    38 1   
    33    18    39 1   
    34    18    40 1   
    35    19    20 1   
    36    19    41 1   
    37    19    42 1   
    38    20    21 1   
    39    20    43 1   
    40    20    44 1   
    41    21    22 1   
    42    21    23 1   
    43    21    28 1   
    44    22    45 1   
    45    22    46 1   
    46    22    47 1   
    47    23    24 1   
    48    23    48 1   
    49    24    49 1   
    50    24    50 1   
    51    25    51 1   
    52    25    52 1   
    53    26    53 1   
    54    26    54 1   
    55    26    55 1   
    56    27    56 1   
    57    27    57 1   
    58    27    58 1   
    59    28    29 1   
    60    28    59 1   
    61    29    60 1   
    62    29    61 1   
    63    29    62 1   
@<TRIPOS>SUBSTRUCTURE
     1 TIP         1 TEMP              0 ****  ****    0 ROOT
