@<TRIPOS>MOLECULE
TNM
   35    36     1     0     0
SMALL
abcg2


@<TRIPOS>ATOM
      1 PA          35.9680   -18.8440    -0.3110 p5         1 TNM       1.476400
      2 O1A         36.6530   -18.0300     0.7640 o          1 TNM      -0.893000
      3 O2A         35.5560   -18.1550    -1.5980 o          1 TNM      -0.893000
      4 O3A         34.6510   -19.5920     0.2470 os         1 TNM      -0.734800
      5 PB          34.3500   -20.4410     1.7300 p5         1 TNM       1.347900
      6 O1B         34.0740   -19.3410     2.7470 o          1 TNM      -0.950167
      7 O2B         35.6210   -21.2450     1.9920 o          1 TNM      -0.950167
      8 O3B         33.1340   -21.2700     1.3350 o          1 TNM      -0.950167
      9 C9          37.1750   -20.1760    -0.7310 c3         1 TNM      -0.211400
     10 O9          36.8550   -21.0080    -1.8330 os         1 TNM      -0.478000
     11 C8          36.8250   -23.3490    -2.2260 c3         1 TNM      -0.091100
     12 C7          36.1230   -22.1800    -1.5570 c3         1 TNM       0.154300
     13 C6          34.6710   -22.0270    -2.0110 c3         1 TNM       0.034600
     14 N9          34.5530   -21.6780    -3.4110 na         1 TNM      -0.218300
     15 C4          34.3090   -22.5170    -4.4550 ca         1 TNM       0.080500
     16 N3          34.1030   -23.8340    -4.4280 nb         1 TNM      -0.179000
     17 C2          33.8920   -24.3230    -5.6360 ca         1 TNM       0.114900
     18 N1          33.8600   -23.6740    -6.7980 nb         1 TNM      -0.347000
     19 C3          34.0600   -22.3510    -6.8090 ca         1 TNM       0.411900
     20 N6          34.0130   -21.6960    -7.9720 nv         1 TNM      -1.100900
     21 C5          34.3080   -21.7080    -5.5830 ca         1 TNM      -0.081600
     22 N7          34.5500   -20.4020    -5.2440 nc         1 TNM      -0.642100
     23 C1          34.6930   -20.4300    -3.9470 cd         1 TNM       0.485700
     24 H9          38.1070   -19.6670    -0.9990 h1         1 TNM       0.042200
     25 H9'A        37.3830   -20.7700     0.1640 h1         1 TNM       0.042200
     26 H8          36.9290   -23.1930    -3.3010 hc         1 TNM       0.013033
     27 H8'A        37.8240   -23.4820    -1.8090 hc         1 TNM       0.013033
     28 H8'B        36.2710   -24.2750    -2.0740 hc         1 TNM       0.013033
     29 H7          36.0800   -22.3580    -0.4750 h1         1 TNM       0.120700
     30 H6          34.1310   -22.9610    -1.8500 h1         1 TNM       0.115200
     31 H6'A        34.1810   -21.2580    -1.4190 h1         1 TNM       0.115200
     32 H2          33.7220   -25.3930    -5.6970 h5         1 TNM       0.009100
     33 HN6         34.1700   -20.7050    -8.0190 hn         1 TNM       0.483000
     34 HN6A        33.8460   -22.1950    -8.8290 hn         1 TNM       0.483000
     35 H1          34.9030   -19.5750    -3.3140 h5         1 TNM       0.163800
@<TRIPOS>BOND
     1     1     2 1   
     2     1     3 1   
     3     1     4 1   
     4     1     9 1   
     5     4     5 1   
     6     5     6 1   
     7     5     7 1   
     8     5     8 1   
     9     9    10 1   
    10     9    24 1   
    11     9    25 1   
    12    10    12 1   
    13    11    12 1   
    14    11    26 1   
    15    11    27 1   
    16    11    28 1   
    17    12    13 1   
    18    12    29 1   
    19    13    14 1   
    20    13    30 1   
    21    13    31 1   
    22    14    15 1   
    23    14    23 1   
    24    15    16 ar  
    25    15    21 ar  
    26    16    17 ar  
    27    17    18 ar  
    28    17    32 1   
    29    18    19 ar  
    30    19    20 1   
    31    19    21 ar  
    32    20    33 1   
    33    20    34 1   
    34    21    22 1   
    35    22    23 2   
    36    23    35 1   
@<TRIPOS>SUBSTRUCTURE
     1 TNM         1 TEMP              0 ****  ****    0 ROOT
