@<TRIPOS>MOLECULE
TP1
   38    38     1     0     0
SMALL
abcg2


@<TRIPOS>ATOM
      1 C8          11.6550    -4.2590    18.4860 c3         1 TP1      -0.004000
      2 C7          11.7410    -5.1890    17.2740 c          1 TP1       0.597100
      3 O7          12.6870    -5.0920    16.5040 o          1 TP1      -0.612100
      4 C5          10.7840    -6.9950    16.0050 c3         1 TP1      -0.063000
      5 C           10.0580    -6.4390    14.7550 c          1 TP1       0.714000
      6 O1          10.0160    -7.2340    13.7970 o          1 TP1      -0.722000
      7 OXT          9.5960    -5.2880    14.8200 o          1 TP1      -0.722000
      8 N4          10.7740    -6.1070    17.1450 n          1 TP1      -0.353800
      9 C3           9.6060    -6.1860    18.0040 c3         1 TP1       0.111000
     10 C2           9.6800    -7.3030    19.0380 c3         1 TP1       0.138800
     11 N1          10.8090    -7.1580    19.9430 n7         1 TP1      -0.879400
     12 C1          11.9600    -7.9750    19.6100 c3         1 TP1       0.146100
     13 N2          12.8590    -3.4700    18.5950 n          1 TP1      -0.277000
     14 C6          13.9290    -3.9710    19.2840 cc         1 TP1       0.024600
     15 C10         12.9660    -2.3250    17.8450 c          1 TP1       0.621000
     16 O2          12.0540    -1.8740    17.1830 o          1 TP1      -0.533000
     17 N3          14.1910    -1.7120    17.9240 ns         1 TP1      -0.467500
     18 C4          15.3110    -2.1330    18.6200 c          1 TP1       0.596200
     19 O4          16.3410    -1.4830    18.5880 o          1 TP1      -0.563000
     20 C9          15.1310    -3.3730    19.3500 cd         1 TP1      -0.299400
     21 C5M         16.2770    -3.9290    20.1300 c3         1 TP1      -0.007900
     22 H8'1        10.7940    -3.5950    18.4100 h1         1 TP1       0.089200
     23 H8'2        11.5330    -4.8440    19.3990 h1         1 TP1       0.089200
     24 H5'1        10.3080    -7.9340    16.3010 h1         1 TP1       0.036200
     25 H5'2        11.8110    -7.2480    15.7420 h1         1 TP1       0.036200
     26 H3'1         9.4400    -5.2380    18.5110 h1         1 TP1       0.055700
     27 H3'2         8.7310    -6.3400    17.3680 h1         1 TP1       0.055700
     28 H2'1         8.7520    -7.2610    19.6140 h1         1 TP1       0.030700
     29 H2'2         9.6810    -8.2800    18.5350 h1         1 TP1       0.030700
     30 H1          10.5130    -7.3870    20.8810 hn         1 TP1       0.394000
     31 H1'1        12.7190    -7.8650    20.3840 h1         1 TP1       0.030033
     32 H1'2        11.7290    -9.0450    19.5140 h1         1 TP1       0.030033
     33 H1'3        12.4070    -7.6530    18.6700 h1         1 TP1       0.030033
     34 H6          13.7380    -4.9010    19.8040 h4         1 TP1       0.203000
     35 HN3         14.2810    -0.8560    17.3910 hn         1 TP1       0.334500
     36 HM51        16.6070    -3.2350    20.9050 hc         1 TP1       0.036367
     37 HM52        15.9990    -4.8630    20.6140 hc         1 TP1       0.036367
     38 HM53        17.1370    -4.1260    19.4880 hc         1 TP1       0.036367
@<TRIPOS>BOND
     1     1     2 1   
     2     1    13 1   
     3     1    22 1   
     4     1    23 1   
     5     2     3 2   
     6     2     8 1   
     7     4     5 1   
     8     4     8 1   
     9     4    24 1   
    10     4    25 1   
    11     5     6 1   
    12     5     7 1   
    13     8     9 1   
    14     9    10 1   
    15     9    26 1   
    16     9    27 1   
    17    10    11 1   
    18    10    28 1   
    19    10    29 1   
    20    11    12 1   
    21    11    30 1   
    22    12    31 1   
    23    12    32 1   
    24    12    33 1   
    25    13    14 1   
    26    13    15 1   
    27    14    20 2   
    28    14    34 1   
    29    15    16 2   
    30    15    17 1   
    31    17    18 1   
    32    17    35 1   
    33    18    19 2   
    34    18    20 1   
    35    20    21 1   
    36    21    36 1   
    37    21    37 1   
    38    21    38 1   
@<TRIPOS>SUBSTRUCTURE
     1 TP1         1 TEMP              0 ****  ****    0 ROOT
