@<TRIPOS>MOLECULE
TX4
   24    23     1     0     0
SMALL
abcg2


@<TRIPOS>ATOM
      1 O7          63.7090    23.5390    23.9710 o          1 TX4      -0.925500
      2 P           65.1840    23.2420    23.6980 p5         1 TX4       1.267900
      3 O5          65.7480    23.9010    22.4470 o          1 TX4      -0.925500
      4 O6          66.0730    23.3240    24.9360 o          1 TX4      -0.925500
      5 O4          65.2390    21.5810    23.2440 os         1 TX4      -0.577400
      6 C4          64.7450    20.6440    24.1500 c3         1 TX4       0.264600
      7 C3          63.2300    20.4300    24.0890 c3         1 TX4       0.120300
      8 O3          62.9490    19.3140    24.9190 oh         1 TX4      -0.743000
      9 C2          62.6940    20.2400    22.6730 c3         1 TX4       0.165300
     10 O2          63.4710    19.2770    21.9980 oh         1 TX4      -0.633000
     11 C1          61.2250    19.8010    22.6540 c3         1 TX4       0.308500
     12 O1          60.8190    19.8240    21.3030 oh         1 TX4      -0.744000
     13 N           60.4480    20.6460    23.5240 n7         1 TX4      -0.634900
     14 ON          59.0890    20.2920    23.4320 oh         1 TX4      -0.514300
     15 H41         65.2390    19.6800    23.9690 h1         1 TX4      -0.000800
     16 H42         64.9910    20.9230    25.1840 h1         1 TX4      -0.000800
     17 H3          62.7620    21.3320    24.4880 h1         1 TX4       0.097700
     18 HO3         62.0330    19.3940    25.2010 ho         1 TX4       0.466000
     19 H2          62.7540    21.2180    22.1720 h1         1 TX4       0.098700
     20 HO2         63.1310    19.2010    21.1010 ho         1 TX4       0.417000
     21 H1          61.1500    18.7800    23.0470 h2         1 TX4       0.040700
     22 HO1         60.0660    19.2350    21.1950 ho         1 TX4       0.485000
     23 HN          60.4960    21.6110    23.2070 hn         1 TX4       0.455000
     24 HON         58.8660    20.0010    24.3220 ho         1 TX4       0.440000
@<TRIPOS>BOND
     1     1     2 1   
     2     2     3 1   
     3     2     4 1   
     4     2     5 1   
     5     5     6 1   
     6     6     7 1   
     7     6    15 1   
     8     6    16 1   
     9     7     8 1   
    10     7     9 1   
    11     7    17 1   
    12     8    18 1   
    13     9    10 1   
    14     9    11 1   
    15     9    19 1   
    16    10    20 1   
    17    11    12 1   
    18    11    13 1   
    19    11    21 1   
    20    12    22 1   
    21    13    14 1   
    22    13    23 1   
    23    14    24 1   
@<TRIPOS>SUBSTRUCTURE
     1 TX4         1 TEMP              0 ****  ****    0 ROOT
