@<TRIPOS>MOLECULE
TZD
   42    43     1     0     0
SMALL
abcg2


@<TRIPOS>ATOM
      1 N1          26.9030   -36.3740     7.8640 nb         1 TZD      -0.249000
      2 C2          27.6240   -37.2310     8.5750 ca         1 TZD       0.171300
      3 C2A         27.6610   -38.6560     8.1180 c3         1 TZD      -0.126400
      4 N3          28.3410   -36.9340     9.6480 nb         1 TZD      -0.301000
      5 C4          28.3510   -35.6690    10.0810 ca         1 TZD       0.417900
      6 N4          29.1140   -35.4040    11.1460 nv         1 TZD      -1.071900
      7 C5          27.5860   -34.6780     9.4170 ca         1 TZD      -0.263300
      8 C6          26.9060   -35.1160     8.3050 ca         1 TZD       0.136900
      9 C35         27.5540   -33.2360     9.8260 c3         1 TZD       0.166300
     10 N2          26.8320   -32.9660    11.0690 n          1 TZD      -0.304000
     11 C1          27.5120   -32.6570    12.2070 c          1 TZD       0.463600
     12 OC2         28.7240   -32.6610    12.3520 o          1 TZD      -0.641000
     13 S1          26.3570   -32.2420    13.4610 ss         1 TZD       0.098800
     14 C8          25.0070   -32.5040    12.3780 cc         1 TZD       0.004400
     15 C7          25.4390   -32.8910    11.1650 cd         1 TZD      -0.107600
     16 C4A         24.5850   -33.2350     9.9960 c3         1 TZD      -0.011900
     17 C5A         23.6130   -32.3350    12.8800 c3         1 TZD      -0.064200
     18 C5B         23.1080   -33.5710    13.6210 c3         1 TZD       0.263600
     19 O5G         21.8130   -33.3190    14.1070 os         1 TZD      -0.589400
     20 P1          21.4390   -33.6890    15.6840 p5         1 TZD       1.476800
     21 O11         22.5470   -32.9060    16.5330 os         1 TZD      -0.740800
     22 O12         20.0480   -33.1540    15.8690 o          1 TZD      -0.893500
     23 O13         21.6990   -35.1590    15.8850 o          1 TZD      -0.893500
     24 P2          22.9530   -31.2290    16.7840 p5         1 TZD       1.363900
     25 O21         22.6820   -31.0600    18.2720 o          1 TZD      -0.952500
     26 O22         24.4280   -31.2130    16.3980 o          1 TZD      -0.952500
     27 O23         22.0420   -30.4280    15.8650 o          1 TZD      -0.952500
     28 H2A1        28.6310   -38.8820     7.6700 hc         1 TZD       0.044700
     29 H2A2        27.5300   -39.3380     8.9580 hc         1 TZD       0.044700
     30 H2A3        26.8920   -38.8510     7.3750 hc         1 TZD       0.044700
     31 H4'1        29.2170   -34.4800    11.5390 hn         1 TZD       0.514500
     32 H4'2        29.6510   -36.1500    11.5540 hn         1 TZD       0.514500
     33 H6          26.3220   -34.4040     7.7260 h4         1 TZD       0.010100
     34 H351        28.5640   -32.8450     9.9550 h1         1 TZD       0.049200
     35 H352        27.1020   -32.6430     9.0300 h1         1 TZD       0.049200
     36 H4A1        23.5410   -33.0290    10.2170 hc         1 TZD       0.034700
     37 H4A2        24.8520   -32.6610     9.1080 hc         1 TZD       0.034700
     38 H4A3        24.6640   -34.2930     9.7440 hc         1 TZD       0.034700
     39 H5A1        23.5630   -31.4790    13.5560 hc         1 TZD       0.087200
     40 H5A2        22.9460   -32.1090    12.0460 hc         1 TZD       0.087200
     41 H5B1        23.0990   -34.4250    12.9330 h1         1 TZD       0.002700
     42 H5B2        23.8150   -33.8180    14.4200 h1         1 TZD       0.002700
@<TRIPOS>BOND
     1     1     2 ar  
     2     1     8 ar  
     3     2     3 1   
     4     2     4 ar  
     5     3    28 1   
     6     3    29 1   
     7     3    30 1   
     8     4     5 ar  
     9     5     6 1   
    10     5     7 ar  
    11     6    31 1   
    12     6    32 1   
    13     7     8 ar  
    14     7     9 1   
    15     8    33 1   
    16     9    10 1   
    17     9    34 1   
    18     9    35 1   
    19    10    11 1   
    20    10    15 1   
    21    11    12 2   
    22    11    13 1   
    23    13    14 1   
    24    14    15 2   
    25    14    17 1   
    26    15    16 1   
    27    16    36 1   
    28    16    37 1   
    29    16    38 1   
    30    17    18 1   
    31    17    39 1   
    32    17    40 1   
    33    18    19 1   
    34    18    41 1   
    35    18    42 1   
    36    19    20 1   
    37    20    21 1   
    38    20    22 1   
    39    20    23 1   
    40    21    24 1   
    41    24    25 1   
    42    24    26 1   
    43    24    27 1   
@<TRIPOS>SUBSTRUCTURE
     1 TZD         1 TEMP              0 ****  ****    0 ROOT
