@<TRIPOS>MOLECULE
X0O
   44    45     1     0     0
SMALL
abcg2


@<TRIPOS>ATOM
      1 C14        132.6960   145.8330   131.9360 c3         1 X0O       0.259600
      2 C15        131.4350   145.8190   132.7720 c5         1 X0O       0.116300
      3 C16        131.6320   146.2970   134.2060 c5         1 X0O       0.150300
      4 C17        130.4410   145.6450   134.9130 c5         1 X0O       0.076300
      5 C18        130.3910   144.2820   134.1920 c5         1 X0O       0.207500
      6 C19        131.1430   143.2040   134.9280 cc         1 X0O      -0.380800
      7 C20        130.6100   142.5500   136.0870 cc         1 X0O       0.750500
      8 C22        132.4860   141.1980   136.3310 c          1 X0O       0.707400
      9 C25        132.3630   142.7690   134.5360 cd         1 X0O       0.018600
     10 N21        131.2640   141.6060   136.7330 nd         1 X0O      -0.827100
     11 N23        133.0370   141.8080   135.2000 n          1 X0O      -0.308000
     12 N27        129.4090   142.8960   136.5710 nv         1 X0O      -1.053200
     13 O02        131.1110   145.4200   128.5350 o          1 X0O      -0.876500
     14 O03        131.4060   147.5680   129.9880 o          1 X0O      -0.876500
     15 O04        133.3240   146.5680   128.5820 os         1 X0O      -0.698800
     16 O06        135.3380   146.7810   130.1640 o          1 X0O      -0.933500
     17 O07        134.3570   148.8940   129.0460 o          1 X0O      -0.933500
     18 O08        135.6000   147.0820   127.6960 os         1 X0O      -0.743800
     19 O10        134.1140   148.0340   125.7790 o          1 X0O      -0.920833
     20 O11        135.1120   145.6730   125.6270 o          1 X0O      -0.920833
     21 O12        136.6520   147.7210   125.4910 o          1 X0O      -0.920833
     22 O13        132.4740   145.3250   130.6400 os         1 X0O      -0.579400
     23 O26        133.1230   140.3240   136.9040 o          1 X0O      -0.624000
     24 O28        130.9510   144.4890   132.9100 os         1 X0O      -0.421000
     25 O29        129.3030   146.4250   134.6590 oh         1 X0O      -0.674000
     26 O30        131.6840   147.6910   134.2560 oh         1 X0O      -0.645000
     27 P01        131.9500   146.2950   129.4120 p5         1 X0O       1.470800
     28 P05        134.6980   147.4330   128.9670 p5         1 X0O       1.556800
     29 P09        135.3300   147.1400   125.9750 p5         1 X0O       1.384900
     30 H1         133.4560   145.2020   132.4100 h1         1 X0O       0.038700
     31 H2         133.0920   146.8510   131.9250 h1         1 X0O       0.038700
     32 H3         130.6780   146.4450   132.2830 h1         1 X0O       0.117700
     33 H4         132.5500   145.8460   134.6120 h1         1 X0O       0.029700
     34 H5         130.6120   145.5230   135.9890 h1         1 X0O       0.012700
     35 H6         129.3440   143.9690   134.0700 h1         1 X0O       0.024700
     36 H7         134.3420   140.3160   134.4990 h1         1 X0O       0.049367
     37 H8         134.6260   141.9420   133.8690 h1         1 X0O       0.049367
     38 H9         135.0970   141.5460   135.5240 h1         1 X0O       0.049367
     39 H10        132.8530   143.1720   133.6610 h4         1 X0O       0.260000
     40 H11        129.0270   142.3650   137.3350 hn         1 X0O       0.477000
     41 H12        128.7770   143.5050   136.0820 hn         1 X0O       0.477000
     42 H17        128.5480   146.0140   135.0920 ho         1 X0O       0.460000
     43 H18        131.9550   147.9600   135.1390 ho         1 X0O       0.464000
     44 C24        134.3490   141.3740   134.7520 c3         1 X0O       0.088300
@<TRIPOS>BOND
     1     1     2 1   
     2     1    22 1   
     3     1    30 1   
     4     1    31 1   
     5     2     3 1   
     6     2    24 1   
     7     2    32 1   
     8     3     4 1   
     9     3    26 1   
    10     3    33 1   
    11     4     5 1   
    12     4    25 1   
    13     4    34 1   
    14     5     6 1   
    15     5    24 1   
    16     5    35 1   
    17     6     7 1   
    18     6     9 2   
    19     7    10 2   
    20     7    12 1   
    21     8    10 1   
    22     8    11 1   
    23     8    23 2   
    24     9    11 1   
    25     9    39 1   
    26    11    44 1   
    27    12    40 1   
    28    12    41 1   
    29    13    27 1   
    30    14    27 1   
    31    15    27 1   
    32    15    28 1   
    33    16    28 1   
    34    17    28 1   
    35    18    28 1   
    36    18    29 1   
    37    19    29 1   
    38    20    29 1   
    39    21    29 1   
    40    22    27 1   
    41    25    42 1   
    42    26    43 1   
    43    36    44 1   
    44    37    44 1   
    45    38    44 1   
@<TRIPOS>SUBSTRUCTURE
     1 X0O         1 TEMP              0 ****  ****    0 ROOT
