@<TRIPOS>MOLECULE
XAL
   37    39     1     0     0
SMALL
abcg2


@<TRIPOS>ATOM
      1 P            4.1010    -3.0280    25.7790 p5         1 XAL       1.266900
      2 OP1          3.8200    -3.2130    27.2670 o          1 XAL      -0.919500
      3 OP2          4.1840    -4.3150    24.9670 o          1 XAL      -0.919500
      4 O5           5.7430    -2.5190    25.7100 os         1 XAL      -0.605400
      5 C5           6.1100    -1.3260    26.3260 c3         1 XAL       0.258600
      6 C4           7.5550    -0.9950    25.9470 c6         1 XAL      -0.061500
      7 C6           7.6550    -0.8870    24.4550 c2         1 XAL      -0.079200
      8 C7           8.5600    -1.4940    23.6970 c2         1 XAL      -0.335200
      9 C3           8.5460    -2.0020    26.5290 c6         1 XAL       0.169300
     10 O3           8.7410    -1.6720    27.8900 oh         1 XAL      -0.664000
     11 C2           9.8610    -2.0040    25.7610 c6         1 XAL      -0.125400
     12 C1           9.6510    -2.3370    24.2860 c6         1 XAL       0.155500
     13 N9           9.3680    -3.7580    24.0710 na         1 XAL      -0.276300
     14 C8           8.1540    -4.3890    24.0930 cc         1 XAL       0.472700
     15 N7           8.2340    -5.6750    23.9000 nd         1 XAL      -0.558100
     16 C11         10.3220    -7.0790    23.5100 ca         1 XAL       0.429900
     17 N6           9.7560    -8.2820    23.3720 nv         1 XAL      -1.079900
     18 C9           9.5740    -5.9110    23.7460 ca         1 XAL      -0.080600
     19 C10         10.2960    -4.7310    23.8530 ca         1 XAL       0.079500
     20 N3          11.6190    -4.6020    23.7540 nb         1 XAL      -0.219000
     21 C12         12.2080    -5.7630    23.5320 ca         1 XAL       0.137900
     22 N1          11.6500    -6.9650    23.4080 nb         1 XAL      -0.332000
     23 OP3          3.3270    -1.8890    25.1220 o          1 XAL      -0.919500
     24 H5           6.0300    -1.3790    27.4220 h1         1 XAL       0.007700
     25 H5'          5.4710    -0.4890    26.0100 h1         1 XAL       0.007700
     26 H4           7.7890    -0.0080    26.3700 hc         1 XAL       0.034700
     27 H6           6.9040    -0.2660    23.9760 ha         1 XAL       0.185000
     28 H7           8.5380    -1.3890    22.6190 ha         1 XAL       0.166000
     29 H3           8.1040    -3.0040    26.4530 h1         1 XAL       0.085700
     30 HO3          9.2150    -2.3960    28.3100 ho         1 XAL       0.423000
     31 H2          10.5640    -2.7130    26.2060 hc         1 XAL       0.037700
     32 H2'         10.3220    -1.0140    25.8170 hc         1 XAL       0.037700
     33 H1          10.5830    -2.1460    23.7500 h1         1 XAL       0.055700
     34 H8           7.2380    -3.8420    24.2700 h5         1 XAL       0.156800
     35 HN61         8.7720    -8.4100    23.5320 hn         1 XAL       0.495500
     36 HN62        10.3330    -9.1020    23.2910 hn         1 XAL       0.495500
     37 H9          13.2890    -5.7400    23.4370 h5         1 XAL       0.017100
@<TRIPOS>BOND
     1     1     2 1   
     2     1     3 1   
     3     1     4 1   
     4     1    23 1   
     5     4     5 1   
     6     5     6 1   
     7     5    24 1   
     8     5    25 1   
     9     6     7 1   
    10     6     9 1   
    11     6    26 1   
    12     7     8 2   
    13     7    27 1   
    14     8    12 1   
    15     8    28 1   
    16     9    10 1   
    17     9    11 1   
    18     9    29 1   
    19    10    30 1   
    20    11    12 1   
    21    11    31 1   
    22    11    32 1   
    23    12    13 1   
    24    12    33 1   
    25    13    14 1   
    26    13    19 1   
    27    14    15 2   
    28    14    34 1   
    29    15    18 1   
    30    16    17 1   
    31    16    18 ar  
    32    16    22 ar  
    33    17    35 1   
    34    17    36 1   
    35    18    19 ar  
    36    19    20 ar  
    37    20    21 ar  
    38    21    22 ar  
    39    21    37 1   
@<TRIPOS>SUBSTRUCTURE
     1 XAL         1 TEMP              0 ****  ****    0 ROOT
