@<TRIPOS>MOLECULE
XDA
   58    59     1     0     0
SMALL
abcg2


@<TRIPOS>ATOM
      1 O8           4.5710    -1.7970    -1.8290 o          1 XDA      -0.594100
      2 C7           5.4150    -1.6940    -0.9460 c          1 XDA       0.607100
      3 N9           5.4570    -2.5510     0.0940 n          1 XDA      -0.402800
      4 C11          6.4720    -2.5850     1.1250 c3         1 XDA       0.088800
      5 C10          4.4080    -3.5370     0.2520 c3         1 XDA       0.088800
      6 C4           6.4130    -0.5450    -0.9750 c6         1 XDA      -0.158700
      7 C5           6.4960     0.1020    -2.3530 c6         1 XDA      -0.062400
      8 C6           7.5970     1.1520    -2.3660 c6         1 XDA      -0.050200
      9 C1           7.5120     2.0600    -1.1800 c2         1 XDA      -0.211200
     10 C2           6.7980     1.7810    -0.0940 c2         1 XDA      -0.233200
     11 C3           6.0280     0.5030     0.0920 c6         1 XDA       0.169900
     12 N12          4.6060     0.7860     0.0940 ns         1 XDA      -0.506900
     13 C13          3.7510     0.3160     1.0230 c          1 XDA       0.644100
     14 O14          4.0560    -0.2950     2.0260 o          1 XDA      -0.571000
     15 O15          2.4900     0.6280     0.6970 os         1 XDA      -0.442100
     16 C16          1.4670     0.2270     1.6120 c3         1 XDA       0.236900
     17 C17          0.1600     0.6710     1.0280 ca         1 XDA      -0.129300
     18 C22         -0.1310     2.0270     0.8930 ca         1 XDA      -0.114500
     19 C21         -1.3260     2.4360     0.3300 ca         1 XDA      -0.069500
     20 C18         -0.7780    -0.2590     0.5990 ca         1 XDA      -0.114500
     21 C19         -1.9860     0.1470     0.0500 ca         1 XDA      -0.069500
     22 C20         -2.2710     1.5020    -0.0940 ca         1 XDA      -0.093600
     23 C23         -3.5330     2.0090    -0.7290 c          1 XDA       0.574700
     24 O24         -3.5680     3.1510    -1.1920 o          1 XDA      -0.727100
     25 N25         -4.5660     1.1700    -0.7620 ns         1 XDA      -0.478900
     26 C26         -5.8090     1.5440    -1.4010 c3         1 XDA       0.065000
     27 C27         -6.7050     0.3360    -1.6250 c3         1 XDA       0.229600
     28 O28         -7.1590    -0.2350    -0.4270 os         1 XDA      -0.590400
     29 P29         -6.4010    -1.6440     0.1410 p5         1 XDA       1.295900
     30 O31         -4.9290    -1.2200     0.3500 o          1 XDA      -0.900833
     31 O30         -7.1600    -1.8990     1.4290 o          1 XDA      -0.900833
     32 O32         -6.5700    -2.6820    -0.9570 o          1 XDA      -0.900833
     33 H11B         6.0940    -2.1800     2.0650 h1         1 XDA       0.041367
     34 H11A         6.7770    -3.6180     1.2960 h1         1 XDA       0.041367
     35 H11C         7.3620    -2.0330     0.8420 h1         1 XDA       0.041367
     36 H10C         4.7050    -4.5080    -0.1510 h1         1 XDA       0.041367
     37 H10B         4.1920    -3.6610     1.3120 h1         1 XDA       0.041367
     38 H10A         3.4970    -3.2190    -0.2460 h1         1 XDA       0.041367
     39 H4           7.4150    -0.9050    -0.7250 hc         1 XDA       0.057700
     40 H5A          6.6890    -0.6520    -3.1170 hc         1 XDA       0.060700
     41 H5B          5.5420     0.5680    -2.6140 hc         1 XDA       0.060700
     42 H6B          8.5820     0.6710    -2.3840 hc         1 XDA       0.043700
     43 H6A          7.5450     1.7440    -3.2830 hc         1 XDA       0.043700
     44 H1           8.0650     2.9930    -1.2230 ha         1 XDA       0.167000
     45 H2           6.7480     2.4880     0.7270 ha         1 XDA       0.182000
     46 H3           6.2670     0.1090     1.0800 h1         1 XDA       0.081700
     47 H12          4.2220     1.2750    -0.7000 hn         1 XDA       0.336500
     48 H16A         1.4780    -0.8560     1.7490 h1         1 XDA       0.044700
     49 H16B         1.6340     0.6910     2.5880 h1         1 XDA       0.044700
     50 H22          0.5830     2.7700     1.2290 ha         1 XDA       0.096500
     51 H21         -1.5320     3.4920     0.2200 ha         1 XDA       0.158500
     52 H18         -0.5640    -1.3180     0.6890 ha         1 XDA       0.096500
     53 H19         -2.6950    -0.6040    -0.2710 ha         1 XDA       0.158500
     54 H25         -4.5760     0.2490    -0.2560 hn         1 XDA       0.424500
     55 H26A        -6.3470     2.2920    -0.8060 h1         1 XDA       0.011200
     56 H26B        -5.6070     2.0050    -2.3720 h1         1 XDA       0.011200
     57 H27A        -7.5710     0.6810    -2.2030 h1         1 XDA      -0.003800
     58 H27B        -6.1850    -0.3930    -2.2590 h1         1 XDA      -0.003800
@<TRIPOS>BOND
     1     1     2 2   
     2     2     3 1   
     3     2     6 1   
     4     3     4 1   
     5     3     5 1   
     6     4    33 1   
     7     4    34 1   
     8     4    35 1   
     9     5    36 1   
    10     5    37 1   
    11     5    38 1   
    12     6     7 1   
    13     6    11 1   
    14     6    39 1   
    15     7     8 1   
    16     7    40 1   
    17     7    41 1   
    18     8     9 1   
    19     8    42 1   
    20     8    43 1   
    21     9    10 2   
    22     9    44 1   
    23    10    11 1   
    24    10    45 1   
    25    11    12 1   
    26    11    46 1   
    27    12    13 1   
    28    12    47 1   
    29    13    14 2   
    30    13    15 1   
    31    15    16 1   
    32    16    17 1   
    33    16    48 1   
    34    16    49 1   
    35    17    18 ar  
    36    17    20 ar  
    37    18    19 ar  
    38    18    50 1   
    39    19    22 ar  
    40    19    51 1   
    41    20    21 ar  
    42    20    52 1   
    43    21    22 ar  
    44    21    53 1   
    45    22    23 1   
    46    23    24 2   
    47    23    25 1   
    48    25    26 1   
    49    25    54 1   
    50    26    27 1   
    51    26    55 1   
    52    26    56 1   
    53    27    28 1   
    54    27    57 1   
    55    27    58 1   
    56    28    29 1   
    57    29    30 1   
    58    29    31 1   
    59    29    32 1   
@<TRIPOS>SUBSTRUCTURE
     1 XDA         1 TEMP              0 ****  ****    0 ROOT
