@<TRIPOS>MOLECULE
XDC
   20    19     1     0     0
SMALL
abcg2


@<TRIPOS>ATOM
      1 C1         -21.5620    -1.6340    -5.8800 c3         1 XDC       0.203100
      2 CA         -23.9230    -1.8330    -5.3570 c3         1 XDC       0.106800
      3 C          -24.7190    -2.3570    -6.5760 c          1 XDC       0.689000
      4 C4         -23.0330     0.3240    -6.1310 c2         1 XDC       0.852100
      5 N          -22.8110    -0.9520    -5.6460 nh         1 XDC      -0.792600
      6 N2         -22.2980     1.0850    -6.8320 n2         1 XDC      -0.934900
      7 N3         -24.2870     0.8210    -5.7300 nv         1 XDC      -1.024200
      8 O          -25.6900    -3.0850    -6.2820 o          1 XDC      -0.746000
      9 OXT        -24.3340    -2.0290    -7.7110 o          1 XDC      -0.746000
     10 O3         -19.6800     0.6760    -6.9810 o          1 XDC      -0.940167
     11 O4         -21.2180    -0.2420    -8.8370 o          1 XDC      -0.940167
     12 O5         -20.8570     2.2830    -8.5700 o          1 XDC      -0.940167
     13 P1         -20.9080     0.9150    -7.8790 p5         1 XDC       1.401700
     14 H2         -20.7480    -0.9210    -5.9870 h1         1 XDC       0.027700
     15 H1         -21.3520    -2.2850    -5.0280 h1         1 XDC       0.027700
     16 H3         -21.5820    -2.2540    -6.7810 h1         1 XDC       0.027700
     17 HA3        -23.5210    -2.6990    -4.8220 h1         1 XDC      -0.016300
     18 HA2        -24.6260    -1.3830    -4.6530 h1         1 XDC      -0.016300
     19 H7         -24.3370     1.8090    -5.9220 hn         1 XDC       0.381000
     20 H6         -24.5490     0.6350    -4.7730 hn         1 XDC       0.381000
@<TRIPOS>BOND
     1     1     5 1   
     2     1    14 1   
     3     1    15 1   
     4     1    16 1   
     5     2     3 1   
     6     2     5 1   
     7     2    17 1   
     8     2    18 1   
     9     3     8 1   
    10     3     9 1   
    11     4     5 1   
    12     4     6 2   
    13     4     7 1   
    14     6    13 1   
    15     7    19 1   
    16     7    20 1   
    17    10    13 1   
    18    11    13 1   
    19    12    13 1   
@<TRIPOS>SUBSTRUCTURE
     1 XDC         1 TEMP              0 ****  ****    0 ROOT
