@<TRIPOS>MOLECULE
XF3
   76    81     1     0     0
SMALL
abcg2


@<TRIPOS>ATOM
      1 C10        -12.5050    10.6000    49.9040 c2         1 XF3      -0.165400
      2 C11        -11.4750    11.1290    50.8350 c5         1 XF3       0.168700
      3 C15        -13.1660     7.3150    45.9880 ca         1 XF3      -0.157000
      4 C16        -12.3570     7.0530    44.8760 ca         1 XF3       0.599300
      5 C18        -12.2540     9.2580    44.2850 ca         1 XF3       0.434300
      6 C19        -13.0300     9.6300    45.3710 ca         1 XF3      -0.184000
      7 C20        -11.7690    10.2720    43.3260 cx         1 XF3      -0.206000
      8 C21        -10.4360    10.0950    42.6480 cx         1 XF3      -0.105400
      9 C22        -11.6870     9.9370    41.8590 cx         1 XF3      -0.105400
     10 C24        -11.2000     5.4700    43.5390 c3         1 XF3       0.177600
     11 C25        -10.9690     3.9730    43.5150 c6         1 XF3      -0.067700
     12 C26        -10.1280     3.6080    42.2910 c6         1 XF3      -0.109400
     13 C27         -9.8080     2.1220    42.2870 c6         1 XF3       0.155100
     14 N1         -10.5330    12.2320    53.2850 n          1 XF3      -0.397800
     15 C2         -11.8990    12.2280    53.0450 c          1 XF3       0.643100
     16 O3         -12.6880    12.8910    53.7020 o          1 XF3      -0.617100
     17 N4         -12.3010    11.4440    52.0100 n          1 XF3      -0.429800
     18 C5         -13.7360    11.2510    51.7730 c5         1 XF3       0.168700
     19 C6         -13.7190    10.6420    50.4190 c2         1 XF3      -0.165400
     20 C7         -14.7440    10.0760    49.5050 c5         1 XF3       0.163200
     21 N8         -13.9090     9.6950    48.3600 n          1 XF3      -0.419800
     22 C9         -12.4840    10.0150    48.5380 c5         1 XF3       0.163200
     23 C12        -14.4210     8.9720    47.3560 c          1 XF3       0.615700
     24 O13        -15.5850     8.6030    47.3240 o          1 XF3      -0.581100
     25 C14        -13.4920     8.6330    46.2300 ca         1 XF3      -0.073600
     26 N17        -11.9250     7.9840    44.0570 nb         1 XF3      -0.767000
     27 O28         -9.1590     1.7180    43.4720 os         1 XF3      -0.449000
     28 C29         -9.9410     1.9730    44.6170 c6         1 XF3       0.155100
     29 C30        -10.2740     3.4490    44.7710 c6         1 XF3      -0.109400
     30 C31        -10.0370    13.2810    54.1610 c6         1 XF3       0.088000
     31 C32         -8.5390    13.4720    53.9510 c6         1 XF3      -0.058400
     32 C33         -7.8060    12.1550    54.1730 c6         1 XF3      -0.275700
     33 C34         -8.3800    11.0580    53.2880 c6         1 XF3      -0.058400
     34 C35         -9.8740    10.9550    53.5460 c6         1 XF3       0.088000
     35 S36         -6.0290    12.3220    53.9580 s6         1 XF3       1.165100
     36 O37         -5.5610    13.3240    54.9070 o          1 XF3      -0.540500
     37 O38         -5.4360    10.9910    53.9890 o          1 XF3      -0.540500
     38 N39         -5.8850    12.8740    52.4060 n8         1 XF3      -1.028100
     39 H47        -10.9620    12.0170    50.4520 h1         1 XF3       0.066200
     40 H46        -10.7050    10.3790    51.0390 h1         1 XF3       0.066200
     41 H48        -13.5080     6.5110    46.6260 ha         1 XF3       0.148000
     42 H49        -13.2840    10.6690    45.5330 ha         1 XF3       0.131000
     43 H50        -12.0530    11.2890    43.5720 hc         1 XF3       0.084700
     44 H51         -9.8370    10.9830    42.5000 hc         1 XF3       0.077450
     45 H52         -9.8750     9.2020    42.8930 hc         1 XF3       0.077450
     46 H54        -11.9790     8.9370    41.5670 hc         1 XF3       0.077450
     47 H53        -11.9620    10.7150    41.1590 hc         1 XF3       0.077450
     48 H56        -11.6800     5.7930    42.6110 h1         1 XF3       0.049200
     49 H55        -10.2460     6.0010    43.6190 h1         1 XF3       0.049200
     50 H57        -11.9400     3.4710    43.4180 hc         1 XF3       0.060700
     51 H59        -10.6560     3.8630    41.3680 hc         1 XF3       0.053450
     52 H58         -9.1970     4.1840    42.2970 hc         1 XF3       0.053450
     53 H60        -10.7380     1.5500    42.1470 h1         1 XF3       0.044700
     54 H61         -9.1420     1.8730    41.4580 h1         1 XF3       0.044700
     55 H40        -14.1810    10.6020    52.5330 h1         1 XF3       0.066200
     56 H41        -14.2900    12.1950    51.7880 h1         1 XF3       0.066200
     57 H42        -15.2580     9.2090    49.9290 h1         1 XF3       0.067950
     58 H43        -15.5120    10.8000    49.2160 h1         1 XF3       0.067950
     59 H44        -11.8590     9.1210    48.4660 h1         1 XF3       0.067950
     60 H45        -12.1270    10.7260    47.7870 h1         1 XF3       0.067950
     61 H63        -10.8750     1.3910    44.5780 h1         1 XF3       0.044700
     62 H62         -9.3720     1.6160    45.4770 h1         1 XF3       0.044700
     63 H65         -9.3540     4.0160    44.9460 hc         1 XF3       0.053450
     64 H64        -10.9040     3.5770    45.6540 hc         1 XF3       0.053450
     65 H67        -10.5460    14.2160    53.9340 h1         1 XF3       0.051200
     66 H66        -10.2330    13.0470    55.2150 h1         1 XF3       0.051200
     67 H69         -8.3640    13.8300    52.9340 hc         1 XF3       0.064450
     68 H68         -8.1840    14.2380    54.6420 hc         1 XF3       0.064450
     69 H70         -7.9020    11.8580    55.2250 h1         1 XF3       0.102700
     70 H72         -8.2060    11.2890    52.2350 hc         1 XF3       0.064450
     71 H71         -7.9180    10.0970    53.5090 hc         1 XF3       0.064450
     72 H73        -10.0420    10.6580    54.5910 h1         1 XF3       0.051200
     73 H74        -10.2980    10.1650    52.9320 h1         1 XF3       0.051200
     74 H76         -5.7780    13.8790    52.3330 hn         1 XF3       0.484000
     75 H75         -5.1740    12.3820    51.8780 hn         1 XF3       0.484000
     76 O23        -12.0300     5.7790    44.6550 os         1 XF3      -0.465300
@<TRIPOS>BOND
     1     1     2 1   
     2     1    19 2   
     3     1    22 1   
     4     2    17 1   
     5     2    39 1   
     6     2    40 1   
     7     3     4 ar  
     8     3    25 ar  
     9     3    41 1   
    10     4    26 ar  
    11     4    76 1   
    12     5     6 ar  
    13     5     7 1   
    14     5    26 ar  
    15     6    25 ar  
    16     6    42 1   
    17     7     8 1   
    18     7     9 1   
    19     7    43 1   
    20     8     9 1   
    21     8    44 1   
    22     8    45 1   
    23     9    46 1   
    24     9    47 1   
    25    10    11 1   
    26    10    48 1   
    27    10    49 1   
    28    10    76 1   
    29    11    12 1   
    30    11    29 1   
    31    11    50 1   
    32    12    13 1   
    33    12    51 1   
    34    12    52 1   
    35    13    27 1   
    36    13    53 1   
    37    13    54 1   
    38    14    15 1   
    39    14    30 1   
    40    14    34 1   
    41    15    16 2   
    42    15    17 1   
    43    17    18 1   
    44    18    19 1   
    45    18    55 1   
    46    18    56 1   
    47    19    20 1   
    48    20    21 1   
    49    20    57 1   
    50    20    58 1   
    51    21    22 1   
    52    21    23 1   
    53    22    59 1   
    54    22    60 1   
    55    23    24 2   
    56    23    25 1   
    57    27    28 1   
    58    28    29 1   
    59    28    61 1   
    60    28    62 1   
    61    29    63 1   
    62    29    64 1   
    63    30    31 1   
    64    30    65 1   
    65    30    66 1   
    66    31    32 1   
    67    31    67 1   
    68    31    68 1   
    69    32    33 1   
    70    32    35 1   
    71    32    69 1   
    72    33    34 1   
    73    33    70 1   
    74    33    71 1   
    75    34    72 1   
    76    34    73 1   
    77    35    36 2   
    78    35    37 2   
    79    35    38 1   
    80    38    74 1   
    81    38    75 1   
@<TRIPOS>SUBSTRUCTURE
     1 XF3         1 TEMP              0 ****  ****    0 ROOT
