@<TRIPOS>MOLECULE
XF8
   84    86     1     0     0
SMALL
abcg2


@<TRIPOS>ATOM
      1 C02          1.7380    -0.1300     0.5570 c          1 XF8       0.642100
      2 C04         -0.3400     0.9080     1.2580 c3         1 XF8       0.038700
      3 C05         -0.8000     2.2880     1.7370 c3         1 XF8      -0.087400
      4 C06          0.0420     2.8940     2.8640 c3         1 XF8      -0.057700
      5 C07         -0.4970     4.2790     3.2090 c3         1 XF8      -0.089100
      6 C08          0.0790     2.0050     4.1010 c3         1 XF8      -0.089100
      7 C09         -1.2920     0.3980     0.1700 c          1 XF8       0.580100
      8 C11         -3.4350    -0.8000    -0.1390 c3         1 XF8       0.133700
      9 C12         -3.5380    -2.2980     0.1700 c3         1 XF8      -0.079400
     10 C13         -2.1890    -3.0100     0.2480 c5         1 XF8      -0.147700
     11 C14         -1.6040    -3.1160     1.6530 c          1 XF8       0.577000
     12 C16         -1.0520    -5.1110     0.5400 c5         1 XF8       0.101000
     13 C17         -2.2250    -4.4720    -0.2020 c5         1 XF8      -0.092400
     14 C19         -4.7520    -0.0310     0.1080 c3         1 XF8      -0.129000
     15 C21         -4.5460     1.4660    -0.1960 c          1 XF8       0.603100
     16 C23         -4.0890     3.1670    -1.8480 cx         1 XF8       0.071700
     17 C24         -3.1540     3.4510    -2.9760 cx         1 XF8      -0.144400
     18 C25         -2.7930     3.8650    -1.5820 cx         1 XF8      -0.144400
     19 C29          3.8550    -0.8950    -0.1410 c3         1 XF8       0.194600
     20 C30          5.1860    -0.2910    -0.5930 c3         1 XF8       0.112000
     21 C31          5.0520     0.4120    -1.9350 c3         1 XF8      -0.083600
     22 C32          5.7590     0.6410     0.4650 c3         1 XF8      -0.083600
     23 C34          7.7860    -1.1810    -1.3420 ca         1 XF8      -0.105000
     24 C35          8.7730    -0.7920    -0.4390 ca         1 XF8      -0.066000
     25 C36         10.0040    -0.3480    -0.9030 ca         1 XF8      -0.126500
     26 C37         10.2590    -0.3010    -2.2670 ca         1 XF8      -0.092000
     27 C38          9.2810    -0.7000    -3.1690 ca         1 XF8      -0.126500
     28 C39          8.0480    -1.1410    -2.7090 ca         1 XF8      -0.066000
     29 N03          1.0120     0.9810     0.7770 ns         1 XF8      -0.475900
     30 N10         -2.4060    -0.1720     0.6620 ns         1 XF8      -0.482900
     31 N15         -0.9840    -4.3020     1.7390 ns         1 XF8      -0.515900
     32 N22         -4.2460     1.8050    -1.4500 ns         1 XF8      -0.458900
     33 O01          1.3650    -1.2610     0.7900 o          1 XF8      -0.542000
     34 O18         -1.6800    -2.2900     2.5530 o          1 XF8      -0.581000
     35 O26         -4.6490     2.2660     0.7240 o          1 XF8      -0.640100
     36 O28          2.9440     0.1770     0.0670 os         1 XF8      -0.466100
     37 S33          6.2380    -1.8120    -0.7570 ss         1 XF8      -0.254000
     38 H1          -0.3760     0.2130     2.1010 h1         1 XF8       0.093700
     39 H2          -0.8060     2.9740     0.8840 hc         1 XF8       0.067200
     40 H3          -1.8370     2.2040     2.0720 hc         1 XF8       0.067200
     41 H4           1.0690     3.0200     2.5050 hc         1 XF8       0.035700
     42 H5          -1.5190     4.2190     3.5880 hc         1 XF8       0.033367
     43 H6           0.1150     4.7560     3.9760 hc         1 XF8       0.033367
     44 H7          -0.5040     4.9320     2.3350 hc         1 XF8       0.033367
     45 H8           0.5600     1.0450     3.9080 hc         1 XF8       0.033367
     46 H9           0.6360     2.4870     4.9050 hc         1 XF8       0.033367
     47 H10         -0.9300     1.8050     4.4710 hc         1 XF8       0.033367
     48 H11         -3.1360    -0.6870    -1.1810 h1         1 XF8       0.086700
     49 H12         -4.0950    -2.4620     1.0940 hc         1 XF8       0.081200
     50 H13         -4.1250    -2.7600    -0.6240 hc         1 XF8       0.081200
     51 H14         -1.4450    -2.4800    -0.3600 hc         1 XF8       0.086700
     52 H15         -1.2250    -6.1580     0.7840 h1         1 XF8       0.035200
     53 H16         -0.1240    -5.0480    -0.0350 h1         1 XF8       0.035200
     54 H17         -3.1610    -4.9350     0.1190 hc         1 XF8       0.059200
     55 H18         -2.1490    -4.5830    -1.2820 hc         1 XF8       0.059200
     56 H20         -4.9920     3.7670    -1.7910 h1         1 XF8       0.082700
     57 H21         -2.6170     2.6130    -3.4030 hc         1 XF8       0.071200
     58 H22         -3.4440     4.2100    -3.6890 hc         1 XF8       0.071200
     59 H23         -2.8310     4.9140    -1.3220 hc         1 XF8       0.071200
     60 H24         -2.0180     3.3010    -1.0820 hc         1 XF8       0.071200
     61 H25          3.4700    -1.5770    -0.9040 h1         1 XF8       0.062200
     62 H26          3.9940    -1.4560     0.7870 h1         1 XF8       0.062200
     63 H27          4.4030     1.2850    -1.8460 hc         1 XF8       0.045867
     64 H28          6.0210     0.7660    -2.2870 hc         1 XF8       0.045867
     65 H29          4.6350    -0.2500    -2.6940 hc         1 XF8       0.045867
     66 H30          5.8420     0.1450     1.4330 hc         1 XF8       0.045867
     67 H31          6.7490     0.9950     0.1770 hc         1 XF8       0.045867
     68 H32          5.1250     1.5210     0.5820 hc         1 XF8       0.045867
     69 H33          8.5800    -0.8400     0.6250 ha         1 XF8       0.126000
     70 H34         10.7660    -0.0450    -0.1960 ha         1 XF8       0.112500
     71 H35         11.2210     0.0410    -2.6270 ha         1 XF8       0.110000
     72 H36          9.4780    -0.6710    -4.2330 ha         1 XF8       0.112500
     73 H37          7.2870    -1.4560    -3.4110 ha         1 XF8       0.126000
     74 H38          1.3570     1.8640     0.4340 hn         1 XF8       0.327500
     75 H39         -2.4120    -0.4010     1.6470 hn         1 XF8       0.337500
     76 H40         -0.4390    -4.5640     2.5460 hn         1 XF8       0.316500
     77 H41         -4.3340     1.1010    -2.1710 hn         1 XF8       0.359500
     78 H42         -5.1500     0.7590     1.7880 ho         1 XF8       0.465000
     79 S1          -6.1570    -0.6190    -0.9440 s6         1 XF8       1.301600
     80 O3          -5.5750    -0.7240    -2.3010 o          1 XF8      -0.672533
     81 O2          -6.5990    -1.9090    -0.3950 o          1 XF8      -0.672533
     82 O1          -7.1640     0.4490    -0.8120 o          1 XF8      -0.672533
     83 O20         -5.1360    -0.1470     1.4340 oh         1 XF8      -0.636000
     84 O27         -1.0520     0.5450    -1.0170 o          1 XF8      -0.625100
@<TRIPOS>BOND
     1     1    29 1   
     2     1    33 2   
     3     1    36 1   
     4     2     3 1   
     5     2     7 1   
     6     2    29 1   
     7     2    38 1   
     8     3     4 1   
     9     3    39 1   
    10     3    40 1   
    11     4     5 1   
    12     4     6 1   
    13     4    41 1   
    14     5    42 1   
    15     5    43 1   
    16     5    44 1   
    17     6    45 1   
    18     6    46 1   
    19     6    47 1   
    20     7    30 1   
    21     7    84 2   
    22     8     9 1   
    23     8    14 1   
    24     8    30 1   
    25     8    48 1   
    26     9    10 1   
    27     9    49 1   
    28     9    50 1   
    29    10    11 1   
    30    10    13 1   
    31    10    51 1   
    32    11    31 1   
    33    11    34 2   
    34    12    13 1   
    35    12    31 1   
    36    12    52 1   
    37    12    53 1   
    38    13    54 1   
    39    13    55 1   
    40    14    15 1   
    41    14    79 1   
    42    14    83 1   
    43    15    32 1   
    44    15    35 2   
    45    16    17 1   
    46    16    18 1   
    47    16    32 1   
    48    16    56 1   
    49    17    18 1   
    50    17    57 1   
    51    17    58 1   
    52    18    59 1   
    53    18    60 1   
    54    19    20 1   
    55    19    36 1   
    56    19    61 1   
    57    19    62 1   
    58    20    21 1   
    59    20    22 1   
    60    20    37 1   
    61    21    63 1   
    62    21    64 1   
    63    21    65 1   
    64    22    66 1   
    65    22    67 1   
    66    22    68 1   
    67    23    24 ar  
    68    23    28 ar  
    69    23    37 1   
    70    24    25 ar  
    71    24    69 1   
    72    25    26 ar  
    73    25    70 1   
    74    26    27 ar  
    75    26    71 1   
    76    27    28 ar  
    77    27    72 1   
    78    28    73 1   
    79    29    74 1   
    80    30    75 1   
    81    31    76 1   
    82    32    77 1   
    83    78    83 1   
    84    79    80 1   
    85    79    81 1   
    86    79    82 1   
@<TRIPOS>SUBSTRUCTURE
     1 XF8         1 TEMP              0 ****  ****    0 ROOT
