@<TRIPOS>MOLECULE
XFB
   62    67     1     0     0
SMALL
abcg2


@<TRIPOS>ATOM
      1 C1          -7.1420     0.8980    35.7100 ca         1 XFB      -0.093200
      2 C10        -10.1650     1.2440    32.0500 cx         1 XFB      -0.257700
      3 C11        -10.2160     1.2880    30.5410 cx         1 XFB      -0.101400
      4 C12        -11.3180     0.6380    31.2900 cx         1 XFB      -0.101400
      5 C13         -7.8520     3.1230    36.6010 c3         1 XFB       0.060900
      6 C14         -5.2820    -3.8330    34.5410 ca         1 XFB       0.410900
      7 C15         -6.3760    -5.0560    32.9900 ca         1 XFB       0.280500
      8 C16         -5.4660    -6.0960    33.1180 ca         1 XFB      -0.266000
      9 C17         -4.4580    -5.8730    34.0410 ca         1 XFB       0.157900
     10 C18         -8.4470    -4.2470    31.9140 cc         1 XFB      -0.072000
     11 C19         -9.2800    -4.7870    30.9750 cd         1 XFB      -0.226300
     12 C2          -6.1720     0.5290    36.6340 ca         1 XFB      -0.090000
     13 C20         -8.6910    -6.0400    30.6470 cd         1 XFB       0.279300
     14 C21         -9.1830    -7.0460    29.6690 c3         1 XFB      -0.123400
     15 C22        -10.5370    -4.2070    30.4180 c3         1 XFB       0.220100
     16 C23        -11.2060    -1.6340    28.1300 c5         1 XFB       0.147600
     17 C24         -9.8240    -2.0210    27.5820 c5         1 XFB       0.145300
     18 C25         -9.5110    -3.2630    28.4130 c5         1 XFB       0.068800
     19 C3          -5.5490    -0.6850    36.4520 ca         1 XFB      -0.146000
     20 C4          -5.8700    -1.5300    35.3660 ca         1 XFB       0.288000
     21 C5          -6.8360    -1.1490    34.4450 ca         1 XFB      -0.081000
     22 C6          -7.4830     0.0780    34.6230 ca         1 XFB      -0.024800
     23 C7          -8.7130     1.9670    34.5730 cc         1 XFB      -0.094100
     24 C8          -8.5050     0.7810    33.8910 cd         1 XFB      -0.238400
     25 C9          -9.1740     0.3350    32.6850 c          1 XFB       0.641300
     26 N1          -7.9100     2.0390    35.6490 na         1 XFB      -0.072700
     27 N2          -5.1340    -2.7150    35.2950 nu         1 XFB      -0.925900
     28 N3          -6.2930    -3.9360    33.6850 nb         1 XFB      -0.270000
     29 N4          -4.3470    -4.7670    34.7550 nb         1 XFB      -0.257000
     30 N5          -7.4480    -5.1480    32.1080 na         1 XFB       0.095300
     31 N6          -7.5960    -6.2390    31.3410 nc         1 XFB      -0.523800
     32 N7         -10.2550    -3.0150    29.6380 n3         1 XFB      -0.411100
     33 O1          -8.9260    -0.7570    32.1890 o          1 XFB      -0.542100
     34 O2         -11.5200    -2.5790    29.1320 os         1 XFB      -0.281300
     35 H1         -10.3730     2.1790    32.5520 hc         1 XFB       0.073700
     36 H2          -9.5260     0.6520    30.0030 hc         1 XFB       0.082950
     37 H3         -10.3930     2.2560    30.0900 hc         1 XFB       0.082950
     38 H4         -12.2690     1.1480    31.3650 hc         1 XFB       0.082950
     39 H5         -11.3830    -0.4420    31.2630 hc         1 XFB       0.082950
     40 H6          -8.0920     2.7660    37.6010 h1         1 XFB       0.052367
     41 H7          -6.8580     3.5680    36.6150 h1         1 XFB       0.052367
     42 H8          -8.5720     3.8860    36.3200 h1         1 XFB       0.052367
     43 H9          -5.5310    -7.0100    32.5500 ha         1 XFB       0.162000
     44 H10         -3.7040    -6.6330    34.2100 h4         1 XFB       0.025100
     45 H11         -8.4910    -3.3130    32.4470 h4         1 XFB       0.200000
     46 H12         -5.9050     1.1600    37.4710 ha         1 XFB       0.115000
     47 H13         -8.5090    -7.8990    29.6210 hc         1 XFB       0.048700
     48 H14        -10.1750    -7.4110    29.9410 hc         1 XFB       0.048700
     49 H15         -9.2630    -6.6170    28.6690 hc         1 XFB       0.048700
     50 H16        -11.2110    -3.9260    31.2300 h1         1 XFB       0.056700
     51 H17        -11.0530    -4.9680    29.8140 h1         1 XFB       0.056700
     52 H18        -11.1710    -0.6160    28.5330 h1         1 XFB       0.059700
     53 H19        -11.9910    -1.6850    27.3750 h1         1 XFB       0.059700
     54 H20         -9.8670    -2.2770    26.5190 h1         1 XFB       0.038700
     55 H21         -9.8630    -4.1670    27.8930 h1         1 XFB       0.059200
     56 H22         -8.4470    -3.3760    28.6220 h1         1 XFB       0.059200
     57 H23         -4.7930    -0.9990    37.1610 ha         1 XFB       0.111000
     58 H24         -7.0810    -1.7800    33.6100 ha         1 XFB       0.165000
     59 H25         -9.3950     2.7760    34.3590 h4         1 XFB       0.214000
     60 H26         -4.3560    -2.7800    35.9340 hn         1 XFB       0.511000
     61 O3          -8.9420    -0.9460    27.8030 oh         1 XFB      -0.644000
     62 H27         -8.0840    -1.1760    27.4340 ho         1 XFB       0.444000
@<TRIPOS>BOND
     1     1    12 ar  
     2     1    22 ar  
     3     1    26 1   
     4     2     3 1   
     5     2     4 1   
     6     2    25 1   
     7     2    35 1   
     8     3     4 1   
     9     3    36 1   
    10     3    37 1   
    11     4    38 1   
    12     4    39 1   
    13     5    26 1   
    14     5    40 1   
    15     5    41 1   
    16     5    42 1   
    17     6    27 1   
    18     6    28 ar  
    19     6    29 ar  
    20     7     8 ar  
    21     7    28 ar  
    22     7    30 1   
    23     8     9 ar  
    24     8    43 1   
    25     9    29 ar  
    26     9    44 1   
    27    10    11 2   
    28    10    30 1   
    29    10    45 1   
    30    11    13 1   
    31    11    15 1   
    32    12    19 ar  
    33    12    46 1   
    34    13    14 1   
    35    13    31 2   
    36    14    47 1   
    37    14    48 1   
    38    14    49 1   
    39    15    32 1   
    40    15    50 1   
    41    15    51 1   
    42    16    17 1   
    43    16    34 1   
    44    16    52 1   
    45    16    53 1   
    46    17    18 1   
    47    17    54 1   
    48    17    61 1   
    49    18    32 1   
    50    18    55 1   
    51    18    56 1   
    52    19    20 ar  
    53    19    57 1   
    54    20    21 ar  
    55    20    27 1   
    56    21    22 ar  
    57    21    58 1   
    58    22    24 1   
    59    23    24 2   
    60    23    26 1   
    61    23    59 1   
    62    24    25 1   
    63    25    33 2   
    64    27    60 1   
    65    30    31 1   
    66    32    34 1   
    67    61    62 1   
@<TRIPOS>SUBSTRUCTURE
     1 XFB         1 TEMP              0 ****  ****    0 ROOT
