@<TRIPOS>MOLECULE
XFR
   73    74     1     0     0
SMALL
abcg2


@<TRIPOS>ATOM
      1 C11         -2.4060    -1.2440    -2.2290 c          1 XFR       0.561000
      2 C12         -3.3020    -3.4000    -1.9750 c5         1 XFR       0.103000
      3 C13         -4.2720    -2.5790    -2.8330 c5         1 XFR      -0.092400
      4 C5          -0.5510    -2.7150     3.6400 c3         1 XFR      -0.089600
      5 C10         -3.9020    -1.1340    -2.4910 c5         1 XFR      -0.152700
      6 C1           1.1880    -0.8200     0.4500 c          1 XFR       0.653100
      7 C2          -0.9690    -0.5060     1.5570 c3         1 XFR       0.038700
      8 C3          -1.3400    -0.3800     3.0380 c3         1 XFR      -0.085400
      9 C4          -0.4940    -1.2310     3.9860 c3         1 XFR      -0.059700
     10 C6          -0.9510    -1.0000     5.4230 c3         1 XFR      -0.089600
     11 C7          -1.8750     0.4070     0.7200 c          1 XFR       0.584100
     12 C8          -4.0690     0.4640    -0.4480 c3         1 XFR       0.119700
     13 C14         -5.0460     1.2430     0.4440 c3         1 XFR      -0.093700
     14 C9          -4.7130    -0.6450    -1.2770 c3         1 XFR      -0.077400
     15 C15          3.3130    -0.7810    -0.5680 c3         1 XFR       0.193600
     16 C16          4.6320    -0.0200    -0.4180 c3         1 XFR       0.113000
     17 O3          -5.7470     0.4150     1.3280 oh         1 XFR      -0.615000
     18 O1           0.8570    -1.7820    -0.2130 o          1 XFR      -0.555000
     19 N1           0.4160    -0.1800     1.3470 ns         1 XFR      -0.476900
     20 N2          -3.0540    -0.1490     0.3940 ns         1 XFR      -0.503900
     21 N3          -2.1510    -2.5250    -1.9070 ns         1 XFR      -0.532900
     22 O2          -1.5840    -0.3470    -2.3150 o          1 XFR      -0.540000
     23 O4          -1.5450     1.5410     0.4190 o          1 XFR      -0.584100
     24 O5           2.4040    -0.2650     0.3960 os         1 XFR      -0.463100
     25 S2          -6.3000     2.2190    -0.4680 s6         1 XFR       1.317600
     26 C17          4.4410     1.4730    -0.6330 c3         1 XFR      -0.084100
     27 C18          5.2900    -0.3080     0.9220 c3         1 XFR      -0.084100
     28 S1           5.6330    -0.7510    -1.8020 ss         1 XFR      -0.253000
     29 C19          7.1810     0.1010    -1.6850 ca         1 XFR      -0.105000
     30 C20          8.2170    -0.4330    -0.9210 ca         1 XFR      -0.066000
     31 C21          9.4480     0.2060    -0.8750 ca         1 XFR      -0.126500
     32 C22          9.6550     1.3740    -1.5970 ca         1 XFR      -0.092000
     33 C23          8.6270     1.9040    -2.3660 ca         1 XFR      -0.126500
     34 C24          7.3940     1.2680    -2.4140 ca         1 XFR      -0.066000
     35 H1          -3.7080    -3.6070    -0.9810 h1         1 XFR       0.030700
     36 H2          -3.0440    -4.3540    -2.4340 h1         1 XFR       0.030700
     37 H3          -4.0870    -2.7790    -3.8900 hc         1 XFR       0.053200
     38 H4          -5.3150    -2.8170    -2.6250 hc         1 XFR       0.053200
     39 H5          -0.1200    -2.9330     2.6610 hc         1 XFR       0.032200
     40 H6           0.0030    -3.3040     4.3730 hc         1 XFR       0.032200
     41 H7          -1.5830    -3.0750     3.6370 hc         1 XFR       0.032200
     42 H8          -4.0650    -0.4470    -3.3230 hc         1 XFR       0.093700
     43 H9          -1.1190    -1.5380     1.2360 h1         1 XFR       0.079700
     44 H10         -1.2650     0.6720     3.3360 hc         1 XFR       0.055700
     45 H11         -2.3940    -0.6560     3.1500 hc         1 XFR       0.055700
     46 H12          0.5470    -0.9010     3.9060 hc         1 XFR       0.047700
     47 H13         -1.9830    -1.3290     5.5630 hc         1 XFR       0.032200
     48 H14         -0.3290    -1.5560     6.1260 hc         1 XFR       0.032200
     49 H15         -0.8990     0.0550     5.6970 hc         1 XFR       0.032200
     50 H16         -3.5740     1.1830    -1.1020 h1         1 XFR       0.113700
     51 H17         -4.4590     2.0020     0.9790 h2         1 XFR       0.064700
     52 H18         -5.6790    -0.3170    -1.6540 hc         1 XFR       0.068700
     53 H19         -4.9320    -1.4890    -0.6150 hc         1 XFR       0.068700
     54 H20          2.9090    -0.6380    -1.5750 h1         1 XFR       0.064200
     55 H21          3.4760    -1.8500    -0.4100 h1         1 XFR       0.064200
     56 H22         -5.1750     0.2270     2.0800 ho         1 XFR       0.404000
     57 H23          0.7770     0.6530     1.7850 hn         1 XFR       0.333500
     58 H24         -3.2290    -1.0940     0.7010 hn         1 XFR       0.295500
     59 H25         -1.2450    -2.8220    -1.5770 hn         1 XFR       0.332500
     60 H27          3.8320     1.8990     0.1650 hc         1 XFR       0.046200
     61 H28          5.3980     1.9950    -0.6170 hc         1 XFR       0.046200
     62 H29          3.9570     1.6830    -1.5870 hc         1 XFR       0.046200
     63 H30          5.4330    -1.3780     1.0760 hc         1 XFR       0.046200
     64 H31          6.2640     0.1780     0.9900 hc         1 XFR       0.046200
     65 H32          4.6790     0.0790     1.7400 hc         1 XFR       0.046200
     66 H33          8.0590    -1.3490    -0.3670 ha         1 XFR       0.126500
     67 H34         10.2480    -0.2140    -0.2800 ha         1 XFR       0.112500
     68 H35         10.6170     1.8690    -1.5650 ha         1 XFR       0.110000
     69 H36          8.7840     2.8120    -2.9340 ha         1 XFR       0.112500
     70 H37          6.5950     1.6760    -3.0210 ha         1 XFR       0.126500
     71 O6          -5.5470     2.8720    -1.5560 o          1 XFR      -0.679533
     72 O7          -7.3170     1.2640    -0.9480 o          1 XFR      -0.679533
     73 O8          -6.8240     3.1660     0.5330 o          1 XFR      -0.679533
@<TRIPOS>BOND
     1     1     5 1   
     2     1    21 1   
     3     1    22 2   
     4     2     3 1   
     5     2    21 1   
     6     2    35 1   
     7     2    36 1   
     8     3     5 1   
     9     3    37 1   
    10     3    38 1   
    11     4     9 1   
    12     4    39 1   
    13     4    40 1   
    14     4    41 1   
    15     5    14 1   
    16     5    42 1   
    17     6    18 2   
    18     6    19 1   
    19     6    24 1   
    20     7     8 1   
    21     7    11 1   
    22     7    19 1   
    23     7    43 1   
    24     8     9 1   
    25     8    44 1   
    26     8    45 1   
    27     9    10 1   
    28     9    46 1   
    29    10    47 1   
    30    10    48 1   
    31    10    49 1   
    32    11    20 1   
    33    11    23 2   
    34    12    13 1   
    35    12    14 1   
    36    12    20 1   
    37    12    50 1   
    38    13    17 1   
    39    13    25 1   
    40    13    51 1   
    41    14    52 1   
    42    14    53 1   
    43    15    16 1   
    44    15    24 1   
    45    15    54 1   
    46    15    55 1   
    47    16    26 1   
    48    16    27 1   
    49    16    28 1   
    50    17    56 1   
    51    19    57 1   
    52    20    58 1   
    53    21    59 1   
    54    25    71 1   
    55    25    72 1   
    56    25    73 1   
    57    26    60 1   
    58    26    61 1   
    59    26    62 1   
    60    27    63 1   
    61    27    64 1   
    62    27    65 1   
    63    28    29 1   
    64    29    30 ar  
    65    29    34 ar  
    66    30    31 ar  
    67    30    66 1   
    68    31    32 ar  
    69    31    67 1   
    70    32    33 ar  
    71    32    68 1   
    72    33    34 ar  
    73    33    69 1   
    74    34    70 1   
@<TRIPOS>SUBSTRUCTURE
     1 XFR         1 TEMP              0 ****  ****    0 ROOT
