@<TRIPOS>MOLECULE
XH0
   68    71     1     0     0
SMALL
abcg2


@<TRIPOS>ATOM
      1 C10        -13.7600     7.4700    45.9370 c3         1 XH0      -0.163400
      2 C11        -14.4500     6.4880    44.9930 c3         1 XH0      -0.030100
      3 C13        -13.3420     4.2580    44.9820 ca         1 XH0      -0.122000
      4 C15        -11.7570     3.5650    43.3270 ca         1 XH0      -0.202300
      5 C16        -10.8930     2.4840    42.7590 c3         1 XH0       0.359300
      6 C20        -11.8600     4.8090    42.7300 ca         1 XH0      -0.037000
      7 C21        -12.7030     5.7880    43.2520 ca         1 XH0      -0.128300
      8 C22        -12.7530     7.1150    42.5330 c3         1 XH0       0.138900
      9 C26        -10.0560     9.0350    43.5450 cc         1 XH0       0.503300
     10 C27         -9.2790     9.8920    44.4710 c3         1 XH0      -0.111400
     11 C1          -9.5620    13.0720    52.5780 cc         1 XH0       0.450000
     12 S2         -11.2410    12.5130    52.8210 sx         1 XH0       0.177100
     13 C3         -11.5360    12.0180    51.0940 c3         1 XH0      -0.032100
     14 C4         -12.9150    11.3860    50.9710 c3         1 XH0      -0.052400
     15 C5         -13.2850    11.1060    49.5160 c6         1 XH0      -0.056700
     16 C6         -14.7440    10.6810    49.3920 c6         1 XH0      -0.090400
     17 C7         -15.1190    10.4150    47.9420 c6         1 XH0       0.097500
     18 N8         -14.2360     9.4300    47.3370 n          1 XH0      -0.409800
     19 C9         -14.7450     8.4090    46.6120 c          1 XH0       0.609100
     20 C12        -13.4750     5.5130    44.3850 ca         1 XH0      -0.017300
     21 C14        -12.4970     3.2930    44.4740 ca         1 XH0      -0.043000
     22 F17         -9.9720     2.0690    43.6420 f          1 XH0      -0.111333
     23 F18        -11.6150     1.4010    42.4340 f          1 XH0      -0.111333
     24 F19        -10.2400     2.8610    41.6570 f          1 XH0      -0.111333
     25 N23        -11.5290     7.8760    42.7170 na         1 XH0       0.245600
     26 N24        -10.5760     7.9040    41.8350 nd         1 XH0      -0.176800
     27 N25         -9.6310     8.6330    42.3350 nc         1 XH0      -0.381000
     28 N28        -11.2600     8.5600    43.8000 nd         1 XH0      -0.546800
     29 O29        -15.9510     8.2290    46.5000 o          1 XH0      -0.612100
     30 C30        -12.8250     9.7640    47.4310 c6         1 XH0       0.097500
     31 C31        -12.4080    10.0370    48.8700 c6         1 XH0      -0.090400
     32 O32        -11.0610    11.2580    53.6300 o          1 XH0      -0.503000
     33 N33         -9.1890    14.1450    51.9690 nd         1 XH0      -0.601000
     34 C34         -7.8340    14.2440    51.9880 cd         1 XH0       0.394900
     35 C35         -7.2040    13.2230    52.6350 cc         1 XH0      -0.477500
     36 S36         -5.4800    13.0760    52.9160 sy         1 XH0       1.188600
     37 O37         -5.2530    12.8800    54.3350 o          1 XH0      -0.538000
     38 N38         -5.1790    11.6280    52.1990 n8         1 XH0      -1.024100
     39 O39         -4.8590    14.2010    52.2420 o          1 XH0      -0.538000
     40 S40         -8.3310    12.0830    53.2480 ss         1 XH0       0.242600
     41 H51        -13.0140     8.0400    45.3810 hc         1 XH0       0.073700
     42 H50        -13.2030     6.9210    46.7030 hc         1 XH0       0.073700
     43 H52        -15.2060     5.9200    45.5350 hc         1 XH0       0.068200
     44 H53        -14.9860     7.0360    44.2170 hc         1 XH0       0.068200
     45 H54        -13.9290     4.0320    45.8640 ha         1 XH0       0.127000
     46 H56        -11.2920     5.0360    41.8360 ha         1 XH0       0.141000
     47 H58        -12.8630     6.9680    41.4600 h1         1 XH0       0.088700
     48 H57        -13.5760     7.7410    42.8670 h1         1 XH0       0.088700
     49 H59         -8.4530    10.3640    43.9450 hc         1 XH0       0.059033
     50 H61         -9.9070    10.6680    44.9040 hc         1 XH0       0.059033
     51 H60         -8.8660     9.3030    45.2910 hc         1 XH0       0.059033
     52 H41        -11.4630    12.9330    50.5000 h1         1 XH0       0.087200
     53 H42        -10.7290    11.3400    50.8130 h1         1 XH0       0.087200
     54 H44        -12.9540    10.4590    51.5500 hc         1 XH0       0.052200
     55 H43        -13.6610    12.0630    51.3980 hc         1 XH0       0.052200
     56 H45        -13.1600    12.0390    48.9500 hc         1 XH0       0.048700
     57 H47        -14.9180     9.7770    49.9860 hc         1 XH0       0.051450
     58 H46        -15.4030    11.4570    49.7880 hc         1 XH0       0.051450
     59 H48        -16.1450    10.0650    47.8710 h1         1 XH0       0.053450
     60 H49        -15.0530    11.3500    47.3710 h1         1 XH0       0.053450
     61 H55        -12.4350     2.3300    44.9650 ha         1 XH0       0.133000
     62 H63        -12.2150     8.9600    47.0300 h1         1 XH0       0.053450
     63 H62        -12.6250    10.6530    46.8210 h1         1 XH0       0.053450
     64 H65        -11.3580    10.3350    48.8620 hc         1 XH0       0.051450
     65 H64        -12.4740     9.1110    49.4530 hc         1 XH0       0.051450
     66 H66         -7.3440    15.0850    51.5190 h4         1 XH0       0.062100
     67 H68         -5.1330    11.6800    51.1860 hn         1 XH0       0.482500
     68 H67         -4.3550    11.1740    52.5820 hn         1 XH0       0.482500
@<TRIPOS>BOND
     1     1     2 1   
     2     1    19 1   
     3     1    41 1   
     4     1    42 1   
     5     2    20 1   
     6     2    43 1   
     7     2    44 1   
     8     3    20 ar  
     9     3    21 ar  
    10     3    45 1   
    11     4     5 1   
    12     4     6 ar  
    13     4    21 ar  
    14     5    22 1   
    15     5    23 1   
    16     5    24 1   
    17     6     7 ar  
    18     6    46 1   
    19     7     8 1   
    20     7    20 ar  
    21     8    25 1   
    22     8    47 1   
    23     8    48 1   
    24     9    10 1   
    25     9    27 1   
    26     9    28 2   
    27    10    49 1   
    28    10    50 1   
    29    10    51 1   
    30    11    12 1   
    31    11    33 2   
    32    11    40 1   
    33    12    13 1   
    34    12    32 2   
    35    13    14 1   
    36    13    52 1   
    37    13    53 1   
    38    14    15 1   
    39    14    54 1   
    40    14    55 1   
    41    15    16 1   
    42    15    31 1   
    43    15    56 1   
    44    16    17 1   
    45    16    57 1   
    46    16    58 1   
    47    17    18 1   
    48    17    59 1   
    49    17    60 1   
    50    18    19 1   
    51    18    30 1   
    52    19    29 2   
    53    21    61 1   
    54    25    26 1   
    55    25    28 1   
    56    26    27 2   
    57    30    31 1   
    58    30    62 1   
    59    30    63 1   
    60    31    64 1   
    61    31    65 1   
    62    33    34 1   
    63    34    35 2   
    64    34    66 1   
    65    35    36 1   
    66    35    40 1   
    67    36    37 2   
    68    36    38 1   
    69    36    39 2   
    70    38    67 1   
    71    38    68 1   
@<TRIPOS>SUBSTRUCTURE
     1 XH0         1 TEMP              0 ****  ****    0 ROOT
