@<TRIPOS>MOLECULE
XHI
   16    17     1     0     0
SMALL
abcg2


@<TRIPOS>ATOM
      1 C10        -68.3750  -121.3060    -1.9370 ca         1 XHI       0.007100
      2 C2         -66.8720  -119.7780    -2.0400 cc         1 XHI       0.770500
      3 C4         -67.8930  -121.1810    -3.2380 ca         1 XHI       0.112400
      4 C5         -68.4090  -122.0020    -4.2290 ca         1 XHI      -0.071000
      5 C6         -69.3920  -122.9200    -3.8730 ca         1 XHI      -0.088000
      6 C7         -69.8420  -123.0080    -2.5580 ca         1 XHI      -0.023900
      7 C9         -69.3420  -122.1980    -1.5410 ca         1 XHI      -0.055000
      8 N1         -66.0610  -118.8520    -1.5250 nv         1 XHI      -1.022200
      9 N3         -66.9330  -120.1910    -3.2680 nd         1 XHI      -0.653100
     10 O11        -67.7090  -120.3970    -1.1740 os         1 XHI      -0.306700
     11 BR8        -71.1820  -124.2690    -2.1240 br         1 XHI      -0.093100
     12 H5         -68.0630  -121.9380    -5.2520 ha         1 XHI       0.136000
     13 H6         -69.8060  -123.5680    -4.6340 ha         1 XHI       0.132000
     14 H9         -69.6870  -122.2630    -0.5180 ha         1 XHI       0.146000
     15 H1A        -65.5550  -118.2650    -2.1670 hn         1 XHI       0.505500
     16 H1B        -66.2600  -118.4600    -0.6190 hn         1 XHI       0.505500
@<TRIPOS>BOND
     1     1     3 ar  
     2     1     7 ar  
     3     1    10 1   
     4     2     8 1   
     5     2     9 2   
     6     2    10 1   
     7     3     4 ar  
     8     3     9 1   
     9     4     5 ar  
    10     4    12 1   
    11     5     6 ar  
    12     5    13 1   
    13     6     7 ar  
    14     6    11 1   
    15     7    14 1   
    16     8    15 1   
    17     8    16 1   
@<TRIPOS>SUBSTRUCTURE
     1 XHI         1 TEMP              0 ****  ****    0 ROOT
