@<TRIPOS>MOLECULE
XSU
   72    78     1     0     0
SMALL
abcg2


@<TRIPOS>ATOM
      1 C11        -13.7900    10.0620    49.5200 c5         1 XSU       0.164200
      2 C15        -12.9370     7.0810    45.8860 ca         1 XSU      -0.154000
      3 C16        -12.3360     6.7610    44.6630 ca         1 XSU       0.599300
      4 C18        -11.6280     5.0920    43.1310 c3         1 XSU       0.177600
      5 C19        -11.5600     3.5800    43.0640 c6         1 XSU      -0.067700
      6 C20        -11.0750     3.1530    41.6790 c6         1 XSU      -0.109900
      7 C21        -10.8950     1.6450    41.6140 c6         1 XSU       0.154600
      8 C23        -10.4810     1.4810    43.9080 c6         1 XSU       0.154600
      9 C24        -10.6390     2.9780    44.1240 c6         1 XSU      -0.109900
     10 C26        -12.1410     8.9550    44.0530 ca         1 XSU       0.434300
     11 C27        -11.6940     9.9350    43.0420 cx         1 XSU      -0.207000
     12 C28        -10.4310     9.6790    42.2610 cx         1 XSU      -0.105400
     13 N1          -9.2730    13.3120    51.8660 n          1 XSU      -0.410800
     14 C2         -10.6260    13.0330    51.9860 c          1 XSU       0.646100
     15 O3         -11.3830    13.7540    52.6180 o          1 XSU      -0.611100
     16 N4         -11.0590    11.9330    51.3140 n          1 XSU      -0.420800
     17 C5         -12.4800    11.5650    51.4080 c5         1 XSU       0.161700
     18 C6         -12.6550    10.7720    50.1660 c2         1 XSU      -0.165400
     19 C7         -11.5490    10.7050    49.4530 c2         1 XSU      -0.165400
     20 C8         -10.4130    11.4120    50.0970 c5         1 XSU       0.161700
     21 C9         -11.7280     9.9520    48.1840 c5         1 XSU       0.164200
     22 N10        -13.1550     9.6040    48.2780 n          1 XSU      -0.419800
     23 C12        -13.8260     8.8160    47.4280 c          1 XSU       0.615700
     24 O13        -14.9700     8.4340    47.6370 o          1 XSU      -0.583100
     25 C14        -13.1180     8.4190    46.1680 ca         1 XSU      -0.073600
     26 O22        -10.0160     1.1750    42.6120 os         1 XSU      -0.449000
     27 N25        -11.9530     7.6610    43.7860 nb         1 XSU      -0.767000
     28 C29        -11.7490     9.5920    41.5770 cx         1 XSU      -0.105400
     29 C30        -12.7220     9.3800    45.2370 ca         1 XSU      -0.187000
     30 C31         -8.2700    12.2940    52.1270 c6         1 XSU       0.080700
     31 C32         -7.7470    12.4420    53.5200 cc         1 XSU       0.322900
     32 N33         -7.8800    13.6100    54.2070 n          1 XSU      -0.327300
     33 C34         -8.6010    14.7790    53.7500 c6         1 XSU       0.096000
     34 C35         -8.8280    14.6400    52.2510 c6         1 XSU       0.073000
     35 C36         -7.2940    13.4510    55.4450 c          1 XSU       0.566000
     36 N37         -6.8320    12.1770    55.3820 ns         1 XSU      -0.371400
     37 N38         -7.1170    11.5530    54.2070 n2         1 XSU      -0.479300
     38 O39         -7.2250    14.2710    56.3450 o          1 XSU      -0.558000
     39 H46        -14.1580     9.2210    50.1160 h1         1 XSU       0.068950
     40 H47        -14.6440    10.7130    49.3130 h1         1 XSU       0.068950
     41 H48        -13.2410     6.3040    46.5740 ha         1 XSU       0.149000
     42 H50        -12.2610     5.4800    42.3270 h1         1 XSU       0.049200
     43 H49        -10.6280     5.5180    42.9980 h1         1 XSU       0.049200
     44 H51        -12.5710     3.1780    43.2080 hc         1 XSU       0.060700
     45 H53        -11.7850     3.4620    40.9070 hc         1 XSU       0.053450
     46 H52        -10.1220     3.6440    41.4520 hc         1 XSU       0.053450
     47 H54        -11.8760     1.1560    41.7080 h1         1 XSU       0.044950
     48 H55        -10.4730     1.3480    40.6520 h1         1 XSU       0.044950
     49 H57        -11.4450     0.9830    44.0940 h1         1 XSU       0.044950
     50 H56         -9.7590     1.0650    44.6120 h1         1 XSU       0.044950
     51 H59         -9.6580     3.4620    44.0710 hc         1 XSU       0.053450
     52 H58        -11.0270     3.1480    45.1300 hc         1 XSU       0.053450
     53 H60        -11.8950    10.9670    43.3030 hc         1 XSU       0.084700
     54 H62         -9.7940    10.5300    42.0590 hc         1 XSU       0.077950
     55 H61         -9.9060     8.7560    42.4690 hc         1 XSU       0.077950
     56 H40        -12.6860    10.9930    52.3180 h1         1 XSU       0.069200
     57 H41        -13.1250    12.4480    51.4280 h1         1 XSU       0.069200
     58 H43        -10.0080    12.2200    49.4820 h1         1 XSU       0.069200
     59 H42         -9.5900    10.7240    50.3130 h1         1 XSU       0.069200
     60 H45        -11.5090    10.5690    47.3100 h1         1 XSU       0.068950
     61 H44        -11.0980     9.0590    48.1240 h1         1 XSU       0.068950
     62 H64        -12.1190     8.6100    41.3140 hc         1 XSU       0.077950
     63 H63        -12.0330    10.3840    40.8960 hc         1 XSU       0.077950
     64 H65        -12.8740    10.4350    45.4200 ha         1 XSU       0.130000
     65 H66         -8.6720    11.2900    52.0150 h1         1 XSU       0.082700
     66 H67         -7.4470    12.3960    51.4140 h1         1 XSU       0.082700
     67 H68         -9.5460    14.8590    54.2850 h1         1 XSU       0.078200
     68 H69         -8.0120    15.6720    53.9600 h1         1 XSU       0.078200
     69 H71         -7.8910    14.8300    51.7210 h1         1 XSU       0.071700
     70 H70         -9.5440    15.3880    51.9190 h1         1 XSU       0.071700
     71 H72         -6.3420    11.6850    56.1120 hn         1 XSU       0.492000
     72 O17        -12.1630     5.4660    44.3980 os         1 XSU      -0.464300
@<TRIPOS>BOND
     1     1    18 1   
     2     1    22 1   
     3     1    39 1   
     4     1    40 1   
     5     2     3 ar  
     6     2    25 ar  
     7     2    41 1   
     8     3    27 ar  
     9     3    72 1   
    10     4     5 1   
    11     4    42 1   
    12     4    43 1   
    13     4    72 1   
    14     5     6 1   
    15     5     9 1   
    16     5    44 1   
    17     6     7 1   
    18     6    45 1   
    19     6    46 1   
    20     7    26 1   
    21     7    47 1   
    22     7    48 1   
    23     8     9 1   
    24     8    26 1   
    25     8    49 1   
    26     8    50 1   
    27     9    51 1   
    28     9    52 1   
    29    10    11 1   
    30    10    27 ar  
    31    10    29 ar  
    32    11    12 1   
    33    11    28 1   
    34    11    53 1   
    35    12    28 1   
    36    12    54 1   
    37    12    55 1   
    38    13    14 1   
    39    13    30 1   
    40    13    34 1   
    41    14    15 2   
    42    14    16 1   
    43    16    17 1   
    44    16    20 1   
    45    17    18 1   
    46    17    56 1   
    47    17    57 1   
    48    18    19 2   
    49    19    20 1   
    50    19    21 1   
    51    20    58 1   
    52    20    59 1   
    53    21    22 1   
    54    21    60 1   
    55    21    61 1   
    56    22    23 1   
    57    23    24 2   
    58    23    25 1   
    59    25    29 ar  
    60    28    62 1   
    61    28    63 1   
    62    29    64 1   
    63    30    31 1   
    64    30    65 1   
    65    30    66 1   
    66    31    32 1   
    67    31    37 2   
    68    32    33 1   
    69    32    35 1   
    70    33    34 1   
    71    33    67 1   
    72    33    68 1   
    73    34    69 1   
    74    34    70 1   
    75    35    36 1   
    76    35    38 2   
    77    36    37 1   
    78    36    71 1   
@<TRIPOS>SUBSTRUCTURE
     1 XSU         1 TEMP              0 ****  ****    0 ROOT
