@<TRIPOS>MOLECULE
XTH
   37    38     1     0     0
SMALL
abcg2


@<TRIPOS>ATOM
      1 OP3         -6.6820     6.9630    16.6120 o          1 XTH      -0.894833
      2 P           -6.1450     7.7860    17.7710 p5         1 XTH       1.291900
      3 OP1         -4.8750     7.1670    18.4070 o          1 XTH      -0.894833
      4 OP2         -7.1590     8.2840    18.7810 o          1 XTH      -0.894833
      5 O6          -5.6070     9.2470    17.0790 os         1 XTH      -0.585400
      6 C6          -4.4920     9.2100    16.2370 c3         1 XTH       0.255600
      7 C5          -3.3340    10.0170    16.7970 c6         1 XTH       0.116300
      8 C4          -2.9690     9.6470    18.2410 c6         1 XTH       0.186300
      9 O4          -2.6240     8.3020    18.3490 oh         1 XTH      -0.845000
     10 C3          -1.8240    10.5420    18.6930 c6         1 XTH      -0.088400
     11 C2          -2.2330    12.0020    18.5520 c6         1 XTH      -0.119400
     12 C1          -2.6990    12.2790    17.1300 c6         1 XTH       0.338700
     13 O5          -3.6920    11.3920    16.7090 os         1 XTH      -0.462000
     14 N1          -3.2870    13.6110    17.0110 n          1 XTH      -0.292000
     15 C10         -2.5850    14.6170    16.3930 c          1 XTH       0.618000
     16 O2          -1.4760    14.4760    15.9180 o          1 XTH      -0.585000
     17 N3          -3.2440    15.8200    16.3570 ns         1 XTH      -0.474500
     18 C9          -4.4960    16.1270    16.8630 c          1 XTH       0.594200
     19 O1          -4.9480    17.2520    16.7570 o          1 XTH      -0.579000
     20 C8          -5.1680    15.0140    17.5040 cc         1 XTH      -0.320400
     21 C5M         -6.5300    15.2220    18.0800 c3         1 XTH      -0.007900
     22 C7          -4.5310    13.8310    17.5430 cd         1 XTH       0.049600
     23 H6'1        -4.7470     9.6180    15.2490 h1         1 XTH       0.009200
     24 H6'2        -4.1270     8.1930    16.0520 h1         1 XTH       0.009200
     25 H5          -2.4550     9.8300    16.1570 h1         1 XTH       0.001700
     26 H4          -3.8390     9.8920    18.8710 h1         1 XTH       0.055700
     27 H4T         -3.5030     7.7920    18.3660 ho         1 XTH       0.625000
     28 H3'1        -0.9330    10.3370    18.0880 hc         1 XTH       0.033200
     29 H3'2        -1.5610    10.3280    19.7310 hc         1 XTH       0.033200
     30 H2'1        -1.4040    12.6720    18.7880 hc         1 XTH       0.036200
     31 H2'2        -3.0380    12.2260    19.2590 hc         1 XTH       0.036200
     32 H1          -1.8370    12.2440    16.4560 h2         1 XTH       0.060700
     33 HN3         -2.7400    16.5730    15.9040 hn         1 XTH       0.320500
     34 H71         -7.2390    15.5520    17.3190 hc         1 XTH       0.038700
     35 H72         -6.5220    15.9810    18.8630 hc         1 XTH       0.038700
     36 H73         -6.9120    14.2990    18.5140 hc         1 XTH       0.038700
     37 H6          -4.9940    12.9690    18.0030 h4         1 XTH       0.257000
@<TRIPOS>BOND
     1     1     2 1   
     2     2     3 1   
     3     2     4 1   
     4     2     5 1   
     5     5     6 1   
     6     6     7 1   
     7     6    23 1   
     8     6    24 1   
     9     7     8 1   
    10     7    13 1   
    11     7    25 1   
    12     8     9 1   
    13     8    10 1   
    14     8    26 1   
    15     9    27 1   
    16    10    11 1   
    17    10    28 1   
    18    10    29 1   
    19    11    12 1   
    20    11    30 1   
    21    11    31 1   
    22    12    13 1   
    23    12    14 1   
    24    12    32 1   
    25    14    15 1   
    26    14    22 1   
    27    15    16 2   
    28    15    17 1   
    29    17    18 1   
    30    17    33 1   
    31    18    19 2   
    32    18    20 1   
    33    20    21 1   
    34    20    22 2   
    35    21    34 1   
    36    21    35 1   
    37    21    36 1   
    38    22    37 1   
@<TRIPOS>SUBSTRUCTURE
     1 XTH         1 TEMP              0 ****  ****    0 ROOT
