@<TRIPOS>MOLECULE
XTS
   32    34     1     0     0
SMALL
abcg2


@<TRIPOS>ATOM
      1 O6          32.1180    93.3580   104.5860 o          1 XTS      -0.498000
      2 C6          33.0390    93.2220   103.8070 c          1 XTS       0.528500
      3 N1          33.0190    93.8350   102.5540 ns         1 XTS      -0.483500
      4 C2          33.9690    93.8110   101.5550 c          1 XTS       0.630000
      5 O2          33.8390    94.4290   100.5200 o          1 XTS      -0.549000
      6 N3          35.0720    93.0360   101.8180 ns         1 XTS      -0.483600
      7 C4          35.1840    92.3930   103.0080 cc         1 XTS       0.045600
      8 C5          34.2360    92.4530   103.9990 cd         1 XTS       0.099500
      9 N7          34.6070    91.6740   105.0620 nd         1 XTS      -0.570000
     10 C8          35.7400    91.1580   104.7150 cc         1 XTS       0.390400
     11 N9          36.1540    91.5620   103.4630 na         1 XTS      -0.204500
     12 C1          37.3350    91.0710   102.7930 c5         1 XTS       0.278300
     13 O4          36.9770    90.6620   101.5000 os         1 XTS      -0.437000
     14 C9          38.0290    90.9540   100.5780 c5         1 XTS       0.125300
     15 C10         38.3870    89.7240    99.7690 c3         1 XTS       0.157600
     16 O5          37.3440    89.2710    98.9430 oh         1 XTS      -0.693000
     17 C3          39.1900    91.4560   101.4390 c5         1 XTS       0.146300
     18 O3          40.0140    92.2980   100.6970 oh         1 XTS      -0.680000
     19 C7          38.4590    92.0970   102.6220 c5         1 XTS       0.091300
     20 O1          37.9750    93.3520   102.2390 oh         1 XTS      -0.697000
     21 HN1         32.2050    94.4000   102.3470 hn         1 XTS       0.344500
     22 HN3         35.8430    93.0820   101.1660 hn         1 XTS       0.480000
     23 H8          36.3410    90.4800   105.3020 h5         1 XTS       0.062100
     24 H1          37.6910    90.2280   103.3970 h2         1 XTS       0.077700
     25 H4          37.7000    91.7560    99.9030 h1         1 XTS       0.083700
     26 H5'1        39.2950    89.9510    99.1970 h1         1 XTS       0.053700
     27 H5'2        38.6330    88.9060   100.4510 h1         1 XTS       0.053700
     28 HO5         37.1940    89.9280    98.2560 ho         1 XTS       0.505000
     29 H3          39.7410    90.5870   101.8270 h1         1 XTS       0.044700
     30 HO3         40.8570    92.3880   101.1520 ho         1 XTS       0.516000
     31 H2          39.0790    92.1500   103.5220 h1         1 XTS       0.062700
     32 HO2         37.8380    93.8920   103.0230 ho         1 XTS       0.522000
@<TRIPOS>BOND
     1     1     2 2   
     2     2     3 1   
     3     2     8 1   
     4     3     4 1   
     5     3    21 1   
     6     4     5 2   
     7     4     6 1   
     8     6     7 1   
     9     6    22 1   
    10     7     8 2   
    11     7    11 1   
    12     8     9 1   
    13     9    10 2   
    14    10    11 1   
    15    10    23 1   
    16    11    12 1   
    17    12    13 1   
    18    12    19 1   
    19    12    24 1   
    20    13    14 1   
    21    14    15 1   
    22    14    17 1   
    23    14    25 1   
    24    15    16 1   
    25    15    26 1   
    26    15    27 1   
    27    16    28 1   
    28    17    18 1   
    29    17    19 1   
    30    17    29 1   
    31    18    30 1   
    32    19    20 1   
    33    19    31 1   
    34    20    32 1   
@<TRIPOS>SUBSTRUCTURE
     1 XTS         1 TEMP              0 ****  ****    0 ROOT
