@<TRIPOS>MOLECULE
XTY
   40    42     1     0     0
SMALL
abcg2


@<TRIPOS>ATOM
      1 P           -8.9740    -9.9700    -0.2990 p5         1 XTY       1.262900
      2 OP1         -7.8140   -10.9370    -0.5230 o          1 XTY      -0.918167
      3 OP2         -9.9710   -10.3860     0.7720 o          1 XTY      -0.918167
      4 C5          -7.3010    -7.9270    -0.3430 c3         1 XTY       0.231600
      5 C4          -6.3410    -7.1590     0.5570 c5         1 XTY       0.105300
      6 O4          -5.2810    -6.5770    -0.2060 os         1 XTY      -0.506000
      7 C3          -6.9660    -5.9610     1.2620 c5         1 XTY       0.147300
      8 C2          -6.8990    -4.8980     0.1650 c5         1 XTY      -0.146400
      9 C1          -5.6500    -5.2780    -0.6560 c5         1 XTY       0.218600
     10 O5          -8.2320    -8.5980     0.4440 os         1 XTY      -0.575400
     11 C11         -4.2800    -8.2250    -3.5710 c          1 XTY       0.631000
     12 O2          -3.7050    -9.2290    -3.2020 o          1 XTY      -0.548000
     13 N3          -4.5260    -7.9760    -4.9040 ns         1 XTY      -0.470500
     14 C10         -5.1690    -6.8870    -5.4430 c          1 XTY       0.607600
     15 O1          -5.3240    -6.7860    -6.6440 o          1 XTY      -0.571000
     16 C9          -5.6300    -5.9000    -4.4620 ca         1 XTY      -0.227600
     17 C6          -5.4070    -6.1250    -3.1010 ca         1 XTY       0.169600
     18 N           -4.7310    -7.2680    -2.7230 ns         1 XTY      -0.495600
     19 CP          -6.2760    -4.7470    -4.9010 ca         1 XTY      -0.019000
     20 CD          -6.4940    -4.0490    -2.6420 ca         1 XTY      -0.052000
     21 C8          -5.8650    -5.1860    -2.1590 ca         1 XTY      -0.131300
     22 C7          -6.7100    -3.7980    -3.9990 ca         1 XTY      -0.144300
     23 C7A         -7.3880    -2.5350    -4.4420 c3         1 XTY      -0.028800
     24 O3          -6.2910    -5.6000     2.4450 oh         1 XTY      -0.729000
     25 OP3         -9.5910    -9.4150    -1.5790 o          1 XTY      -0.918167
     26 H5'1        -7.7800    -7.2340    -1.0530 h1         1 XTY       0.006700
     27 H5'2        -6.7000    -8.6190    -0.9490 h1         1 XTY       0.006700
     28 H4          -5.8840    -7.8540     1.2680 h1         1 XTY       0.096700
     29 H3          -7.9970    -6.1640     1.5550 h1         1 XTY       0.131700
     30 H2'1        -6.8380    -3.8900     0.5740 hc         1 XTY       0.057200
     31 H2'2        -7.7990    -4.9430    -0.4500 hc         1 XTY       0.057200
     32 H1          -4.8170    -4.6110    -0.4080 h1         1 XTY       0.034700
     33 HN          -4.6140    -7.4270    -1.7270 hn         1 XTY       0.506000
     34 HP          -6.4280    -4.6010    -5.9630 ha         1 XTY       0.121000
     35 HD          -6.8330    -3.3050    -1.9280 ha         1 XTY       0.104000
     36 H7A1        -6.8160    -1.6550    -4.1470 hc         1 XTY       0.030700
     37 H7A2        -7.5050    -2.5070    -5.5240 hc         1 XTY       0.030700
     38 H7A3        -8.3790    -2.4370    -3.9960 hc         1 XTY       0.030700
     39 HO3         -5.3650    -5.4280     2.2460 ho         1 XTY       0.481000
     40 HN3         -4.1970    -8.6800    -5.5530 hn         1 XTY       0.331500
@<TRIPOS>BOND
     1     1     2 1   
     2     1     3 1   
     3     1    10 1   
     4     1    25 1   
     5     4     5 1   
     6     4    10 1   
     7     4    26 1   
     8     4    27 1   
     9     5     6 1   
    10     5     7 1   
    11     5    28 1   
    12     6     9 1   
    13     7     8 1   
    14     7    24 1   
    15     7    29 1   
    16     8     9 1   
    17     8    30 1   
    18     8    31 1   
    19     9    21 1   
    20     9    32 1   
    21    11    12 2   
    22    11    13 1   
    23    11    18 1   
    24    13    14 1   
    25    13    40 1   
    26    14    15 2   
    27    14    16 1   
    28    16    17 ar  
    29    16    19 ar  
    30    17    18 1   
    31    17    21 ar  
    32    18    33 1   
    33    19    22 ar  
    34    19    34 1   
    35    20    21 ar  
    36    20    22 ar  
    37    20    35 1   
    38    22    23 1   
    39    23    36 1   
    40    23    37 1   
    41    23    38 1   
    42    24    39 1   
@<TRIPOS>SUBSTRUCTURE
     1 XTY         1 TEMP              0 ****  ****    0 ROOT
