@<TRIPOS>MOLECULE
XWN
   47    51     1     0     0
SMALL
abcg2


@<TRIPOS>ATOM
      1 C10        -12.1400     8.0440    42.9920 cp         1 XWN      -0.039000
      2 C11        -13.3280     8.7180    42.7460 ca         1 XWN      -0.092000
      3 C13        -11.5840     5.6820    42.4060 ca         1 XWN      -0.004000
      4 C15        -10.9990     3.3970    41.7730 cg         1 XWN       0.332000
      5 C17        -12.0390     3.8870    43.9370 ca         1 XWN       0.196000
      6 C19        -12.5820     4.7800    44.8420 ca         1 XWN      -0.213000
      7 C20        -12.6350     6.1320    44.5130 ca         1 XWN       0.198100
      8 C22        -13.5230     6.7660    46.6430 c3         1 XWN       0.161300
      9 C23        -14.0300     8.0400    47.2190 cc         1 XWN       0.337900
     10 C26        -14.3550    10.1560    47.8340 ca         1 XWN      -0.108200
     11 C27        -14.1490    11.5370    47.9220 ca         1 XWN       0.337900
     12 C1         -15.8950    12.6180    42.8300 cx         1 XWN      -0.135900
     13 C2         -14.6400    12.0420    42.2840 cx         1 XWN       0.095300
     14 C3         -14.6010    12.7800    43.5810 cx         1 XWN      -0.135900
     15 O4         -14.5510    10.6490    42.3010 os         1 XWN      -0.313100
     16 C5         -13.3400    10.0930    42.5290 ca         1 XWN       0.128100
     17 C6         -12.1430    10.8050    42.5510 ca         1 XWN      -0.157000
     18 C7         -10.9490    10.1370    42.7900 ca         1 XWN      -0.123000
     19 C8         -10.9630     8.7770    43.0090 ca         1 XWN       0.140000
     20 F9          -9.8090     8.1400    43.2700 f          1 XWN      -0.177000
     21 C12        -12.1220     6.5940    43.2880 cp         1 XWN      -0.080000
     22 C14        -11.5410     4.3190    42.7090 ca         1 XWN      -0.056000
     23 N16        -10.5600     2.6640    41.0000 n1         1 XWN      -0.442000
     24 O21        -13.1560     7.0660    45.3040 os         1 XWN      -0.333100
     25 N24        -15.1050     8.0690    47.9670 nd         1 XWN      -0.495100
     26 N25        -15.2950     9.3280    48.3450 na         1 XWN      -0.041400
     27 N28        -13.1360    12.0920    47.2980 nb         1 XWN      -0.643000
     28 C29        -12.2950    11.3260    46.5730 ca         1 XWN       0.285900
     29 C30        -12.4150     9.9640    46.4260 ca         1 XWN      -0.069000
     30 C31        -13.4890     9.3500    47.0820 ca         1 XWN      -0.176900
     31 H39        -14.2610     8.1700    42.7330 ha         1 XWN       0.138000
     32 H40        -11.1920     6.0230    41.4560 ha         1 XWN       0.139000
     33 H41        -12.9590     4.4120    45.7860 ha         1 XWN       0.140000
     34 H43        -14.3040     6.0020    46.6900 h1         1 XWN       0.061200
     35 H42        -12.6500     6.3990    47.1930 h1         1 XWN       0.061200
     36 H45        -14.8100    12.1770    48.4970 h4         1 XWN       0.025100
     37 H33        -16.3170    13.4770    42.3250 hc         1 XWN       0.083700
     38 H32        -16.6250    11.9310    43.2380 hc         1 XWN       0.083700
     39 H34        -14.1940    12.5110    41.4100 h1         1 XWN       0.082700
     40 H36        -14.1240    13.7520    43.5980 hc         1 XWN       0.083700
     41 H35        -14.4760    12.2000    44.4870 hc         1 XWN       0.083700
     42 H37        -12.1190    11.8730    42.3910 ha         1 XWN       0.127000
     43 H38        -10.0150    10.6840    42.8130 ha         1 XWN       0.132000
     44 H44        -16.0860     9.5630    48.9240 hn         1 XWN       0.386000
     45 H46        -11.4850    11.8520    46.0840 h4         1 XWN       0.023100
     46 H47        -11.7080     9.4100    45.8260 ha         1 XWN       0.140000
     47 CL18       -11.9840     2.2160    44.3390 cl         1 XWN      -0.167000
@<TRIPOS>BOND
     1     1     2 ar  
     2     1    19 ar  
     3     1    21 1   
     4     2    16 ar  
     5     2    31 1   
     6     3    21 ar  
     7     3    22 ar  
     8     3    32 1   
     9     4    22 1   
    10     4    23 3   
    11     5     6 ar  
    12     5    22 ar  
    13     5    47 1   
    14     6     7 ar  
    15     6    33 1   
    16     7    21 ar  
    17     7    24 1   
    18     8     9 1   
    19     8    24 1   
    20     8    34 1   
    21     8    35 1   
    22     9    25 2   
    23     9    30 1   
    24    10    11 ar  
    25    10    26 1   
    26    10    30 ar  
    27    11    27 ar  
    28    11    36 1   
    29    12    13 1   
    30    12    14 1   
    31    12    37 1   
    32    12    38 1   
    33    13    14 1   
    34    13    15 1   
    35    13    39 1   
    36    14    40 1   
    37    14    41 1   
    38    15    16 1   
    39    16    17 ar  
    40    17    18 ar  
    41    17    42 1   
    42    18    19 ar  
    43    18    43 1   
    44    19    20 1   
    45    25    26 1   
    46    26    44 1   
    47    27    28 ar  
    48    28    29 ar  
    49    28    45 1   
    50    29    30 ar  
    51    29    46 1   
@<TRIPOS>SUBSTRUCTURE
     1 XWN         1 TEMP              0 ****  ****    0 ROOT
