@<TRIPOS>MOLECULE
XWX
   42    44     1     0     0
SMALL
abcg2


@<TRIPOS>ATOM
      1 C11        -11.7760     9.4180    43.5680 ca         1 XWX       0.603300
      2 C13        -13.4860     8.6330    42.1210 ca         1 XWX      -0.031000
      3 C15        -12.9270    10.9300    42.3150 ca         1 XWX       0.384900
      4 C17        -10.0040    10.1900    44.9280 c3         1 XWX       0.155900
      5 C18        -11.6370     6.0630    42.5810 ca         1 XWX      -0.053000
      6 C19        -11.4070     4.7420    42.9370 ca         1 XWX       0.081000
      7 C20        -11.7770     4.2530    44.1830 ca         1 XWX      -0.020300
      8 C21        -12.3870     5.1400    45.0680 ca         1 XWX      -0.199000
      9 C22        -12.6180     6.4680    44.7270 ca         1 XWX       0.165100
     10 C23        -12.2390     6.9420    43.4660 cp         1 XWX      -0.045000
     11 C1         -13.7030     6.9060    46.7910 c3         1 XWX       0.148300
     12 C2         -14.3300     8.0590    47.4790 cc         1 XWX       0.352900
     13 O3         -13.2200     7.3590    45.5400 os         1 XWX      -0.327100
     14 N4         -15.5980     8.1800    47.6680 n2         1 XWX      -0.469300
     15 N5         -15.7350     9.3430    48.3410 ns         1 XWX      -0.368400
     16 C6         -14.5530     9.9680    48.5870 c          1 XWX       0.562000
     17 N7         -13.6390     9.1120    48.0070 n          1 XWX      -0.317300
     18 C8         -12.2080     9.3050    48.0150 c3         1 XWX       0.102300
     19 O9         -14.3380    11.0140    49.1730 o          1 XWX      -0.559000
     20 N10        -11.9750    10.6670    43.2110 nb         1 XWX      -0.759000
     21 C12        -12.5140     8.3350    43.0560 cp         1 XWX      -0.104000
     22 C14        -13.7070     9.9530    41.7350 ca         1 XWX      -0.205000
     23 O16        -10.8160     9.1290    44.4470 os         1 XWX      -0.457300
     24 CL24       -10.6390     3.6900    41.7880 cl         1 XWX      -0.204000
     25 H32        -14.0770     7.8310    41.6950 ha         1 XWX       0.124000
     26 H34        -13.0590    11.9730    42.0510 h4         1 XWX       0.020100
     27 H36         -9.2990     9.7330    45.6180 h1         1 XWX       0.046033
     28 H37         -9.4540    10.6750    44.1200 h1         1 XWX       0.046033
     29 H35        -10.5880    10.9430    45.4570 h1         1 XWX       0.046033
     30 H38        -11.3420     6.4180    41.6020 ha         1 XWX       0.135000
     31 H39        -12.6810     4.7550    46.0360 ha         1 XWX       0.119000
     32 H40        -10.4840     2.5770    44.5650 hc         1 XWX       0.051033
     33 H41        -11.9190     2.6420    45.5860 hc         1 XWX       0.051033
     34 H42        -12.0490     2.1390    43.9010 hc         1 XWX       0.051033
     35 H26        -12.8900     6.5000    47.4030 h1         1 XWX       0.062200
     36 H27        -14.4580     6.1240    46.6670 h1         1 XWX       0.062200
     37 H28        -16.6470     9.6660    48.6220 hn         1 XWX       0.493000
     38 H29        -11.9950    10.2880    48.4240 h1         1 XWX       0.058700
     39 H31        -11.7180     8.5550    48.6350 h1         1 XWX       0.058700
     40 H30        -11.8120     9.2500    47.0050 h1         1 XWX       0.058700
     41 H33        -14.4650    10.2080    41.0080 ha         1 XWX       0.128000
     42 C25        -11.5460     2.8280    44.5810 c3         1 XWX      -0.050800
@<TRIPOS>BOND
     1     1    20 ar  
     2     1    21 ar  
     3     1    23 1   
     4     2    21 ar  
     5     2    22 ar  
     6     2    25 1   
     7     3    20 ar  
     8     3    22 ar  
     9     3    26 1   
    10     4    23 1   
    11     4    27 1   
    12     4    28 1   
    13     4    29 1   
    14     5     6 ar  
    15     5    10 ar  
    16     5    30 1   
    17     6     7 ar  
    18     6    24 1   
    19     7     8 ar  
    20     7    42 1   
    21     8     9 ar  
    22     8    31 1   
    23     9    10 ar  
    24     9    13 1   
    25    10    21 1   
    26    11    12 1   
    27    11    13 1   
    28    11    35 1   
    29    11    36 1   
    30    12    14 2   
    31    12    17 1   
    32    14    15 1   
    33    15    16 1   
    34    15    37 1   
    35    16    17 1   
    36    16    19 2   
    37    17    18 1   
    38    18    38 1   
    39    18    39 1   
    40    18    40 1   
    41    22    41 1   
    42    32    42 1   
    43    33    42 1   
    44    34    42 1   
@<TRIPOS>SUBSTRUCTURE
     1 XWX         1 TEMP              0 ****  ****    0 ROOT
