@<TRIPOS>MOLECULE
U31
   43    44     1     0     0
SMALL
abcg2


@<TRIPOS>ATOM
      1 P           78.8640    64.3060    -6.7040 p5         1 U31       1.264900
      2 O1P         79.1320    63.9280    -8.1570 o          1 U31      -0.917833
      3 O2P         79.1530    65.7660    -6.3700 o          1 U31      -0.917833
      4 O3P         79.3280    63.2950    -5.6670 o          1 U31      -0.917833
      5 O5          77.1480    64.1760    -6.5440 os         1 U31      -0.575400
      6 C5          76.3920    64.8700    -7.4790 c3         1 U31       0.242600
      7 C4          74.9750    65.0470    -6.9470 c5         1 U31       0.138300
      8 O4          74.2180    65.8560    -7.8670 os         1 U31      -0.469000
      9 C3          74.1960    63.7470    -6.8040 c5         1 U31       0.135300
     10 O3          73.2240    63.9030    -5.8000 oh         1 U31      -0.720000
     11 C2          73.5430    63.6440    -8.1820 c5         1 U31       0.061300
     12 O2          72.4000    62.8440    -8.2150 os         1 U31      -0.456000
     13 C1          73.1990    65.1080    -8.4580 c5         1 U31       0.326700
     14 N1          73.1200    65.4200    -9.8820 n          1 U31      -0.307000
     15 C9          71.8820    65.6380   -10.4580 c          1 U31       0.619000
     16 O7          70.8430    65.6430    -9.8330 o          1 U31      -0.571000
     17 N3          71.9150    65.8480   -11.8120 ns         1 U31      -0.479500
     18 C8          73.0170    65.8590   -12.6550 c          1 U31       0.592200
     19 O6          72.8820    66.0470   -13.8490 o          1 U31      -0.572000
     20 C7          74.2630    65.6310   -11.9660 cc         1 U31      -0.425200
     21 C6          74.2570    65.4260   -10.6400 cd         1 U31       0.036600
     22 CA          72.5270    61.6290    -8.9360 c3         1 U31       0.169600
     23 CB          72.4150    61.8220   -10.4390 c3         1 U31      -0.155400
     24 CC          72.5310    60.4970   -11.1910 c3         1 U31       0.142800
     25 ND          72.4450    60.5910   -12.6390 n8         1 U31      -0.996200
     26 H5'1        76.3590    64.3460    -8.4480 h1         1 U31       0.000200
     27 H5'2        76.7970    65.8710    -7.6850 h1         1 U31       0.000200
     28 H4          75.0190    65.5740    -5.9890 h1         1 U31       0.100700
     29 H3          74.8600    62.8990    -6.5990 h1         1 U31       0.106700
     30 HA          72.5780    63.1940    -5.9010 ho         1 U31       0.494000
     31 H2          74.3000    63.3010    -8.9010 h1         1 U31       0.075700
     32 H1          72.2240    65.3540    -8.0320 h2         1 U31       0.098700
     33 H7          71.0120    66.0080   -12.2430 hn         1 U31       0.321500
     34 H5          75.1900    65.6300   -12.5180 ha         1 U31       0.225000
     35 H6          75.1800    65.2560   -10.1050 h4         1 U31       0.257000
     36 HA'1        71.7190    60.9840    -8.5820 h1         1 U31       0.046200
     37 HA'2        73.4700    61.1290    -8.6840 h1         1 U31       0.046200
     38 HB'1        73.2000    62.4960   -10.7970 hc         1 U31       0.049200
     39 HB'2        71.4560    62.2940   -10.6750 hc         1 U31       0.049200
     40 HCC1        71.7500    59.8130   -10.8460 h1         1 U31       0.049200
     41 HCC2        73.4830    60.0220   -10.9360 h1         1 U31       0.049200
     42 HD'1        73.1670    61.2160   -12.9770 hn         1 U31       0.390500
     43 HD'2        71.5670    61.0260   -12.8970 hn         1 U31       0.390500
@<TRIPOS>BOND
     1     1     2 1   
     2     1     3 1   
     3     1     4 1   
     4     1     5 1   
     5     5     6 1   
     6     6     7 1   
     7     6    26 1   
     8     6    27 1   
     9     7     8 1   
    10     7     9 1   
    11     7    28 1   
    12     8    13 1   
    13     9    10 1   
    14     9    11 1   
    15     9    29 1   
    16    10    30 1   
    17    11    12 1   
    18    11    13 1   
    19    11    31 1   
    20    12    22 1   
    21    13    14 1   
    22    13    32 1   
    23    14    15 1   
    24    14    21 1   
    25    15    16 2   
    26    15    17 1   
    27    17    18 1   
    28    17    33 1   
    29    18    19 2   
    30    18    20 1   
    31    20    21 2   
    32    20    34 1   
    33    21    35 1   
    34    22    23 1   
    35    22    36 1   
    36    22    37 1   
    37    23    24 1   
    38    23    38 1   
    39    23    39 1   
    40    24    25 1   
    41    24    40 1   
    42    24    41 1   
    43    25    42 1   
    44    25    43 1   
@<TRIPOS>SUBSTRUCTURE
     1 U31         1 TEMP              0 ****  ****    0 ROOT
