@<TRIPOS>MOLECULE
U3X
   43    44     1     0     0
SMALL
abcg2


@<TRIPOS>ATOM
      1 C            6.0360     0.2970    -0.0780 c          1 U3X       0.723000
      2 N            4.2280    -0.4850    -1.5740 n8         1 U3X      -0.987200
      3 O            6.7200    -0.6140    -0.5850 o          1 U3X      -0.730000
      4 C01          0.3250    -1.5780     0.1330 ca         1 U3X      -0.181500
      5 C02          1.6850    -1.4800     0.3650 ca         1 U3X      -0.079500
      6 C03          2.2900    -0.2670     0.6990 ca         1 U3X      -0.089300
      7 C04          1.4600     0.8470     0.7820 ca         1 U3X      -0.079500
      8 C05          0.0930     0.7720     0.5480 ca         1 U3X      -0.181500
      9 C06         -0.5050    -0.4510     0.2190 ca         1 U3X       0.279000
     10 N01         -1.8600    -0.5880     0.0170 nu         1 U3X      -0.958200
     11 C07         -2.7240     0.5540    -0.1670 c3         1 U3X       0.215800
     12 C08         -4.1630     0.1230    -0.4200 c6         1 U3X      -0.071700
     13 C09         -5.0420     1.3450    -0.6840 c6         1 U3X      -0.069900
     14 C10         -6.4920     0.9530    -0.9490 c6         1 U3X      -0.073900
     15 C11         -7.0600     0.1230     0.1980 c6         1 U3X      -0.074400
     16 C12         -6.1870    -1.0970     0.4710 c6         1 U3X      -0.073900
     17 C13         -4.7380    -0.7000     0.7330 c6         1 U3X      -0.069900
     18 CB           3.7750    -0.1610     0.8880 c3         1 U3X      -0.064100
     19 CA           4.5210     0.2990    -0.3890 c3         1 U3X       0.026500
     20 H            4.6620    -1.3950    -1.4780 hn         1 U3X       0.377500
     21 H2           3.2310    -0.6430    -1.6500 hn         1 U3X       0.377500
     22 H03          1.8890     1.8120     1.0330 ha         1 U3X       0.111500
     23 H04         -0.5020     1.6730     0.6230 ha         1 U3X       0.097000
     24 H05         -2.1140    -1.3940    -0.5330 hn         1 U3X       0.453000
     25 H07         -2.6970     1.1760     0.7340 h1         1 U3X       0.034700
     26 H06         -2.3850     1.1920    -0.9970 h1         1 U3X       0.034700
     27 H08         -4.1770    -0.5000    -1.3270 hc         1 U3X       0.041700
     28 H09         -4.9970     2.0060     0.1900 hc         1 U3X       0.044200
     29 H10         -4.6450     1.9150    -1.5290 hc         1 U3X       0.044200
     30 H11         -7.0990     1.8480    -1.1090 hc         1 U3X       0.035450
     31 H12         -6.5440     0.3720    -1.8760 hc         1 U3X       0.035450
     32 H14         -7.1100     0.7400     1.1010 hc         1 U3X       0.034700
     33 H13         -8.0840    -0.1860    -0.0260 hc         1 U3X       0.034700
     34 H16         -6.5790    -1.6620     1.3200 hc         1 U3X       0.035450
     35 H15         -6.2260    -1.7680    -0.3940 hc         1 U3X       0.035450
     36 H17         -4.1330    -1.5920     0.9090 hc         1 U3X       0.044200
     37 H18         -4.6850    -0.1010     1.6510 hc         1 U3X       0.044200
     38 H20          4.0040     0.5400     1.6930 hc         1 U3X       0.053200
     39 H19          4.1730    -1.1350     1.1910 hc         1 U3X       0.053200
     40 HA           4.2130     1.3330    -0.5840 h1         1 U3X       0.043700
     41 OXT          6.4330     1.1880     0.7010 o          1 U3X      -0.730000
     42 H01         -0.1080    -2.5400    -0.1170 ha         1 U3X       0.097000
     43 H02          2.2930    -2.3740     0.2930 ha         1 U3X       0.111500
@<TRIPOS>BOND
     1     1     3 1   
     2     1    19 1   
     3     1    41 1   
     4     2    19 1   
     5     2    20 1   
     6     2    21 1   
     7     4     5 ar  
     8     4     9 ar  
     9     4    42 1   
    10     5     6 ar  
    11     5    43 1   
    12     6     7 ar  
    13     6    18 1   
    14     7     8 ar  
    15     7    22 1   
    16     8     9 ar  
    17     8    23 1   
    18     9    10 1   
    19    10    11 1   
    20    10    24 1   
    21    11    12 1   
    22    11    25 1   
    23    11    26 1   
    24    12    13 1   
    25    12    17 1   
    26    12    27 1   
    27    13    14 1   
    28    13    28 1   
    29    13    29 1   
    30    14    15 1   
    31    14    30 1   
    32    14    31 1   
    33    15    16 1   
    34    15    32 1   
    35    15    33 1   
    36    16    17 1   
    37    16    34 1   
    38    16    35 1   
    39    17    36 1   
    40    17    37 1   
    41    18    19 1   
    42    18    38 1   
    43    18    39 1   
    44    19    40 1   
@<TRIPOS>SUBSTRUCTURE
     1 U3X         1 TEMP              0 ****  ****    0 ROOT
