@<TRIPOS>MOLECULE
UB0
  114   121     1     0     0
SMALL
abcg2


@<TRIPOS>ATOM
      1 N1           7.7150    -8.3980    19.0470 n3         1 UB0      -0.744500
      2 N3           3.6920   -18.2450    18.8330 n3         1 UB0      -0.705600
      3 C4          14.8800     1.0230    14.4550 c          1 UB0       0.734000
      4 C5          11.1280    -0.0040    16.7940 cc         1 UB0       0.108000
      5 C6           9.7840     0.0230    17.0290 cd         1 UB0      -0.288000
      6 C7           8.9100    -0.9810    17.6390 ca         1 UB0       0.100000
      7 C8           8.9870    -2.3090    17.2410 ca         1 UB0      -0.166000
      8 C10          7.6230    -5.6990    17.9970 c6         1 UB0       0.235500
      9 C13          7.7400    -7.2720    20.0330 c6         1 UB0       0.248200
     10 C15          8.6360    -7.5330    21.2440 c3         1 UB0      -0.114100
     11 C17          6.3750   -10.3700    20.5090 c3         1 UB0      -0.283100
     12 C20          5.7340   -14.1040    20.4290 ca         1 UB0      -0.028000
     13 C21          4.4920   -16.1740    19.8820 c          1 UB0       0.600100
     14 C22          3.7570   -16.8140    18.7100 c3         1 UB0       0.090800
     15 C24          4.9220   -20.3650    18.8580 c6         1 UB0      -0.068900
     16 C26          3.7400   -22.5220    18.3160 ca         1 UB0      -0.066300
     17 C28          3.3710   -24.3590    19.8890 ca         1 UB0      -0.104000
     18 N            8.2250    -4.5750    17.3200 nu         1 UB0      -0.959200
     19 O            9.5640     4.0340    15.3010 o          1 UB0      -0.701500
     20 C1          10.6680     2.1090    15.9560 cd         1 UB0      -0.229600
     21 C11          7.6030    -6.9140    17.0870 c6         1 UB0      -0.084400
     22 C12          6.9900    -8.1050    17.8010 c6         1 UB0       0.202800
     23 C14          6.3350    -6.9270    20.5420 c3         1 UB0      -0.114100
     24 C16          8.3460    -6.0700    19.2900 c6         1 UB0      -0.110400
     25 C18          6.3830   -11.8170    20.8860 ca         1 UB0      -0.040300
     26 C19          5.7390   -12.7520    20.0870 ca         1 UB0      -0.135000
     27 C2          11.6480     1.1850    16.1960 cc         1 UB0       0.093100
     28 C23          4.9740   -18.8740    18.5690 c6         1 UB0       0.170300
     29 C25          3.8190   -21.0410    18.0420 c6         1 UB0      -0.019400
     30 C27          3.4190   -23.0010    19.5880 ca         1 UB0      -0.092000
     31 C29          3.6530   -25.2390    18.8640 ca         1 UB0      -0.006400
     32 C30          4.0450   -26.9710    17.4930 c          1 UB0       0.693100
     33 C31          3.9620   -24.7680    17.6000 ca         1 UB0       0.056100
     34 C32          4.0150   -23.4310    17.2900 ca         1 UB0      -0.074000
     35 C33          3.4600   -27.5880    19.8030 c6         1 UB0       0.058700
     36 C34          2.3190   -28.4990    19.3700 c          1 UB0       0.568000
     37 C35          3.1670   -30.2630    20.8960 c          1 UB0       0.581000
     38 C36          4.2950   -29.3650    21.3150 c6         1 UB0      -0.163400
     39 C37          4.6910   -28.3740    20.2330 c6         1 UB0      -0.090400
     40 C38          2.4970   -20.3110    18.2830 c6         1 UB0      -0.068900
     41 C39          2.6430   -18.8220    18.0110 c6         1 UB0       0.170300
     42 C40          6.4030   -14.5170    21.5810 ca         1 UB0      -0.117000
     43 C41          7.0430   -13.5770    22.3750 ca         1 UB0      -0.090000
     44 C42          7.0400   -12.2330    22.0390 ca         1 UB0      -0.107000
     45 C43          7.2290    -2.8910    18.7730 ca         1 UB0      -0.216000
     46 C44          7.1520    -1.5620    19.1600 ca         1 UB0      -0.087000
     47 C45          7.9780    -0.5980    18.6070 ca         1 UB0      -0.149000
     48 C9           8.1490    -3.2880    17.7930 ca         1 UB0       0.296000
     49 N4           3.7220   -26.6210    18.7720 n          1 UB0      -0.309000
     50 N5           2.2890   -29.7370    19.9630 ns         1 UB0      -0.480500
     51 O1          11.7760     3.9330    14.9560 o          1 UB0      -0.701500
     52 O10          1.4740   -28.1570    18.5810 o          1 UB0      -0.489000
     53 O11          2.9870   -31.3730    21.3370 o          1 UB0      -0.510000
     54 O2          12.9620     1.3210    15.9510 os         1 UB0      -0.290100
     55 O3          15.2590     0.7190    13.3070 o          1 UB0      -0.739500
     56 O4          15.5700     1.3660    15.4270 o          1 UB0      -0.739500
     57 O7           4.5110   -16.6630    20.9930 o          1 UB0      -0.560100
     58 O8           4.1850   -28.0700    17.0280 o          1 UB0      -0.508000
     59 O9           4.1980   -25.8300    16.7750 os         1 UB0      -0.276200
     60 S            9.1390     1.5260    16.4850 ss         1 UB0       0.217000
     61 S1           7.8130    -9.9920    19.4820 s6         1 UB0       1.193100
     62 H4           9.6890    -2.5970    16.4670 ha         1 UB0       0.127000
     63 H6           6.5830    -5.4370    18.2180 h1         1 UB0       0.054700
     64 H16          8.6700    -6.6090    21.8220 hc         1 UB0       0.048033
     65 H15          8.2550    -8.3070    21.9080 hc         1 UB0       0.048033
     66 H14          9.6540    -7.7850    20.9540 hc         1 UB0       0.048033
     67 H19          6.4240    -9.7340    21.3920 h1         1 UB0       0.094700
     68 H20          5.4950   -10.0930    19.9270 h1         1 UB0       0.094700
     69 H24          2.7390   -16.4100    18.7220 h1         1 UB0       0.048200
     70 H23          4.2030   -16.4850    17.7570 h1         1 UB0       0.048200
     71 H27          5.8910   -20.8120    18.6280 hc         1 UB0       0.052700
     72 H28          4.7420   -20.5150    19.9260 hc         1 UB0       0.052700
     73 H31          3.1250   -24.6970    20.8870 ha         1 UB0       0.123000
     74 H5           9.0730    -4.7940    16.8170 hn         1 UB0       0.469000
     75 H8           7.0210    -6.7080    16.1870 hc         1 UB0       0.061700
     76 H7           8.6220    -7.1610    16.7740 hc         1 UB0       0.061700
     77 H9           5.9290    -7.9180    17.9950 h1         1 UB0       0.052700
     78 H10          7.0440    -8.9690    17.1470 h1         1 UB0       0.052700
     79 H13          6.3810    -6.0120    21.1350 hc         1 UB0       0.048033
     80 H11          5.6100    -6.7580    19.7470 hc         1 UB0       0.048033
     81 H12          5.9380    -7.7080    21.1890 hc         1 UB0       0.048033
     82 H17          8.3520    -5.2200    19.9770 hc         1 UB0       0.065200
     83 H18          9.3900    -6.2960    19.0500 hc         1 UB0       0.065200
     84 H21          5.2160   -12.4260    19.1950 ha         1 UB0       0.116000
     85 H26          5.2890   -18.7140    17.5220 h1         1 UB0       0.034950
     86 H25          5.7400   -18.4140    19.1980 h1         1 UB0       0.034950
     87 H29          4.0730   -20.9130    16.9820 hc         1 UB0       0.050700
     88 H30          3.2060   -22.2950    20.3820 ha         1 UB0       0.128000
     89 H1          13.0240    -0.0820    14.4200 h1         1 UB0       0.014700
     90 H2          12.8680     1.5970    13.9020 h1         1 UB0       0.014700
     91 H32          4.2660   -23.0920    16.2920 ha         1 UB0       0.139000
     92 H33          3.0860   -27.0380    20.6740 h1         1 UB0       0.084700
     93 H36          3.9690   -28.8310    22.2140 hc         1 UB0       0.081700
     94 H35          5.1380   -29.9880    21.6090 hc         1 UB0       0.081700
     95 H38          5.4430   -27.6860    20.6170 hc         1 UB0       0.077700
     96 H37          5.1250   -28.8990    19.3820 hc         1 UB0       0.077700
     97 H40          1.7160   -20.7200    17.6370 hc         1 UB0       0.052700
     98 H39          2.1680   -20.4560    19.3160 hc         1 UB0       0.052700
     99 H41          2.8370   -18.6680    16.9350 h1         1 UB0       0.034950
    100 H42          1.7020   -18.3140    18.2380 h1         1 UB0       0.034950
    101 H43          6.4350   -15.5580    21.8620 ha         1 UB0       0.136000
    102 H44          7.5570   -13.9060    23.2690 ha         1 UB0       0.115000
    103 H45          7.5380   -11.5100    22.6720 ha         1 UB0       0.125000
    104 H46          6.5680    -3.6090    19.2410 ha         1 UB0       0.084000
    105 H47          6.4340    -1.2790    19.9200 ha         1 UB0       0.088000
    106 H48          7.9180     0.4310    18.9370 ha         1 UB0       0.126000
    107 H22          4.9390   -14.6550    18.6220 hn         1 UB0       0.152000
    108 H34          1.5130   -30.3340    19.6960 hn         1 UB0       0.333500
    109 C           10.6840     3.4880    15.3450 c          1 UB0       0.734600
    110 N2           5.0820   -14.9910    19.5640 ns         1 UB0      -0.156000
    111 O5           9.0050   -10.2110    20.2860 o          1 UB0      -0.533500
    112 C3          13.3540     0.9430    14.6320 c3         1 UB0       0.024600
    113 O6           7.6810   -10.7810    18.2640 o          1 UB0      -0.533500
    114 CL          12.1780    -1.2960    17.2320 cl         1 UB0      -0.213000
@<TRIPOS>BOND
     1     1     9 1   
     2     1    22 1   
     3     1    61 1   
     4     2    14 1   
     5     2    28 1   
     6     2    41 1   
     7     3    55 1   
     8     3    56 1   
     9     3   112 1   
    10     4     5 2   
    11     4    27 1   
    12     4   114 1   
    13     5     6 1   
    14     5    60 1   
    15     6     7 ar  
    16     6    47 ar  
    17     7    48 ar  
    18     7    62 1   
    19     8    18 1   
    20     8    21 1   
    21     8    24 1   
    22     8    63 1   
    23     9    10 1   
    24     9    23 1   
    25     9    24 1   
    26    10    64 1   
    27    10    65 1   
    28    10    66 1   
    29    11    25 1   
    30    11    61 1   
    31    11    67 1   
    32    11    68 1   
    33    12    26 ar  
    34    12    42 ar  
    35    12   110 1   
    36    13    14 1   
    37    13    57 2   
    38    13   110 1   
    39    14    69 1   
    40    14    70 1   
    41    15    28 1   
    42    15    29 1   
    43    15    71 1   
    44    15    72 1   
    45    16    29 1   
    46    16    30 ar  
    47    16    34 ar  
    48    17    30 ar  
    49    17    31 ar  
    50    17    73 1   
    51    18    48 1   
    52    18    74 1   
    53    19   109 1   
    54    20    27 2   
    55    20    60 1   
    56    20   109 1   
    57    21    22 1   
    58    21    75 1   
    59    21    76 1   
    60    22    77 1   
    61    22    78 1   
    62    23    79 1   
    63    23    80 1   
    64    23    81 1   
    65    24    82 1   
    66    24    83 1   
    67    25    26 ar  
    68    25    44 ar  
    69    26    84 1   
    70    27    54 1   
    71    28    85 1   
    72    28    86 1   
    73    29    40 1   
    74    29    87 1   
    75    30    88 1   
    76    31    33 ar  
    77    31    49 1   
    78    32    49 1   
    79    32    58 2   
    80    32    59 1   
    81    33    34 ar  
    82    33    59 1   
    83    34    91 1   
    84    35    36 1   
    85    35    39 1   
    86    35    49 1   
    87    35    92 1   
    88    36    50 1   
    89    36    52 2   
    90    37    38 1   
    91    37    50 1   
    92    37    53 2   
    93    38    39 1   
    94    38    93 1   
    95    38    94 1   
    96    39    95 1   
    97    39    96 1   
    98    40    41 1   
    99    40    97 1   
   100    40    98 1   
   101    41    99 1   
   102    41   100 1   
   103    42    43 ar  
   104    42   101 1   
   105    43    44 ar  
   106    43   102 1   
   107    44   103 1   
   108    45    46 ar  
   109    45    48 ar  
   110    45   104 1   
   111    46    47 ar  
   112    46   105 1   
   113    47   106 1   
   114    50   108 1   
   115    51   109 1   
   116    54   112 1   
   117    61   111 2   
   118    61   113 2   
   119    89   112 1   
   120    90   112 1   
   121   107   110 1   
@<TRIPOS>SUBSTRUCTURE
     1 UB0         1 TEMP              0 ****  ****    0 ROOT
