@<TRIPOS>MOLECULE
UBI
   47    48     1     0     0
SMALL
abcg2


@<TRIPOS>ATOM
      1 P           19.9380    -2.8670     8.0970 p5         1 UBI       1.261900
      2 N1          18.7630    -8.1240     7.6270 n          1 UBI      -0.295000
      3 C2          18.7720    -9.5040     7.7660 c          1 UBI       0.617000
      4 O2          18.7700   -10.2750     6.8340 o          1 UBI      -0.585000
      5 N3          18.7800    -9.9350     9.0650 ns         1 UBI      -0.469500
      6 C4          18.7800    -9.1810    10.2200 c          1 UBI       0.605200
      7 O4          18.7860    -9.7450    11.3030 o          1 UBI      -0.602000
      8 C5          18.7770    -7.7490     9.9910 cc         1 UBI      -0.392400
      9 C6          18.7910    -7.3110     8.7090 cd         1 UBI       0.102600
     10 C1          18.7610    -7.5460     6.2850 c5         1 UBI       0.336700
     11 C7          17.6210    -6.5740     6.0100 c5         1 UBI      -0.115400
     12 C21         18.7170    -6.7230    11.0740 c          1 UBI       0.610300
     13 O22         18.6340    -5.5340    10.7910 o          1 UBI      -0.504100
     14 N23         18.7490    -7.1910    12.3290 ns         1 UBI      -0.525900
     15 C24         18.5690    -6.3700    13.5050 c3         1 UBI       0.116000
     16 C25         17.1760    -6.5020    14.1300 c3         1 UBI      -0.084700
     17 C26         16.9080    -7.9230    14.6150 c3         1 UBI      -0.084600
     18 C27         16.0770    -6.0300    13.1850 c3         1 UBI      -0.084600
     19 C3          18.2130    -5.7340     4.8940 c5         1 UBI       0.139300
     20 O3          17.9890    -6.4220     3.6820 oh         1 UBI      -0.756000
     21 C8          19.7070    -5.6860     5.2680 c5         1 UBI       0.124300
     22 O1          19.9420    -6.8180     6.1090 os         1 UBI      -0.449000
     23 C9          20.1480    -4.4070     5.9460 c3         1 UBI       0.241600
     24 O5          19.3380    -4.0940     7.0310 os         1 UBI      -0.591400
     25 OP1         20.4120    -1.7640     7.1560 o          1 UBI      -0.915833
     26 OP2         18.6870    -2.5480     8.9020 o          1 UBI      -0.915833
     27 OP3         21.0590    -3.5620     8.8630 o          1 UBI      -0.915833
     28 HN3         18.7860   -10.9410     9.1860 hn         1 UBI       0.319500
     29 H6          18.8280    -6.2490     8.4990 h4         1 UBI       0.314000
     30 H1          18.7130    -8.3910     5.5970 h2         1 UBI       0.071700
     31 H2          16.7040    -7.0840     5.7170 hc         1 UBI       0.080700
     32 H2'A        17.4020    -5.9440     6.8720 hc         1 UBI       0.080700
     33 HN23        18.8060    -8.1940    12.4460 hn         1 UBI       0.325500
     34 H24         19.3230    -6.6600    14.2420 h1         1 UBI       0.055200
     35 H24A        18.7630    -5.3320    13.2410 h1         1 UBI       0.055200
     36 H25         17.1830    -5.8430    15.0050 hc         1 UBI       0.029700
     37 H26         15.9550    -7.9800    15.1430 hc         1 UBI       0.030033
     38 H26A        16.8560    -8.6280    13.7820 hc         1 UBI       0.030033
     39 H26B        17.6870    -8.2670    15.2970 hc         1 UBI       0.030033
     40 H27         15.1050    -6.0560    13.6810 hc         1 UBI       0.030033
     41 H27A        16.2490    -5.0080    12.8430 hc         1 UBI       0.030033
     42 H27B        16.0090    -6.6720    12.3050 hc         1 UBI       0.030033
     43 H3          17.7790    -4.7280     4.8630 h1         1 UBI       0.087700
     44 HO3         18.4270    -5.9420     2.9720 ho         1 UBI       0.492000
     45 H4          20.3150    -5.7960     4.3610 h1         1 UBI       0.017700
     46 H5          21.2050    -4.5230     6.2290 h1         1 UBI       0.011700
     47 H5'A        20.1300    -3.6240     5.1730 h1         1 UBI       0.011700
@<TRIPOS>BOND
     1     1    24 1   
     2     1    25 1   
     3     1    26 1   
     4     1    27 1   
     5     2     3 1   
     6     2     9 1   
     7     2    10 1   
     8     3     4 2   
     9     3     5 1   
    10     5     6 1   
    11     5    28 1   
    12     6     7 2   
    13     6     8 1   
    14     8     9 2   
    15     8    12 1   
    16     9    29 1   
    17    10    11 1   
    18    10    22 1   
    19    10    30 1   
    20    11    19 1   
    21    11    31 1   
    22    11    32 1   
    23    12    13 2   
    24    12    14 1   
    25    14    15 1   
    26    14    33 1   
    27    15    16 1   
    28    15    34 1   
    29    15    35 1   
    30    16    17 1   
    31    16    18 1   
    32    16    36 1   
    33    17    37 1   
    34    17    38 1   
    35    17    39 1   
    36    18    40 1   
    37    18    41 1   
    38    18    42 1   
    39    19    20 1   
    40    19    21 1   
    41    19    43 1   
    42    20    44 1   
    43    21    22 1   
    44    21    23 1   
    45    21    45 1   
    46    23    24 1   
    47    23    46 1   
    48    23    47 1   
@<TRIPOS>SUBSTRUCTURE
     1 UBI         1 TEMP              0 ****  ****    0 ROOT
