@<TRIPOS>MOLECULE
UDL
   27    26     1     0     0
SMALL
abcg2


@<TRIPOS>ATOM
      1 C7         -43.5700    -1.3940   -10.0450 c3         1 UDL      -0.178100
      2 C1         -40.1970    -3.6670    -7.6620 c3         1 UDL      -0.062700
      3 C5         -40.4900     0.2250    -6.9940 c          1 UDL       0.709000
      4 C6         -43.0270    -1.3900    -8.6340 c          1 UDL       0.598100
      5 C4         -40.9490    -1.2340    -7.2930 c3         1 UDL      -0.075300
      6 C3         -41.2140    -4.1920    -6.6520 c3         1 UDL      -0.082100
      7 O3         -43.7690    -1.5270    -7.6680 o          1 UDL      -0.639100
      8 C2         -38.9780    -4.5860    -7.6890 c3         1 UDL      -0.082100
      9 N          -41.6970    -1.2420    -8.5350 ns         1 UDL      -0.462900
     10 C          -39.7820    -2.2280    -7.3510 c3         1 UDL       0.185300
     11 O          -38.8370    -1.8020    -8.3050 oh         1 UDL      -0.736000
     12 H14        -44.0430    -2.3560   -10.2440 hc         1 UDL       0.042700
     13 H13        -44.3400    -0.6300   -10.1420 hc         1 UDL       0.042700
     14 H12        -42.8130    -1.2210   -10.8080 hc         1 UDL       0.042700
     15 H3         -40.6600    -3.6820    -8.6550 hc         1 UDL       0.043700
     16 H1         -41.6360    -1.5260    -6.4990 h1         1 UDL       0.075700
     17 H9         -41.4340    -5.2430    -6.8450 hc         1 UDL       0.025367
     18 H8         -40.8280    -4.1210    -5.6320 hc         1 UDL       0.025367
     19 H7         -42.1610    -3.6530    -6.6880 hc         1 UDL       0.025367
     20 H6         -39.2780    -5.6130    -7.9040 hc         1 UDL       0.025367
     21 H5         -38.2520    -4.2900    -8.4440 hc         1 UDL       0.025367
     22 H4         -38.4710    -4.5900    -6.7200 hc         1 UDL       0.025367
     23 H11        -41.1620    -1.1350    -9.3820 hn         1 UDL       0.307500
     24 H          -39.3360    -2.2370    -6.3390 h1         1 UDL       0.022700
     25 H2         -38.7180    -0.8530    -8.0690 ho         1 UDL       0.510000
     26 O2         -41.3510     0.9990    -6.5600 o          1 UDL      -0.709000
     27 O1         -39.2890     0.5090    -7.2460 o          1 UDL      -0.709000
@<TRIPOS>BOND
     1     1     4 1   
     2     1    12 1   
     3     1    13 1   
     4     1    14 1   
     5     2     6 1   
     6     2     8 1   
     7     2    10 1   
     8     2    15 1   
     9     3     5 1   
    10     3    26 1   
    11     3    27 1   
    12     4     7 2   
    13     4     9 1   
    14     5     9 1   
    15     5    10 1   
    16     5    16 1   
    17     6    17 1   
    18     6    18 1   
    19     6    19 1   
    20     8    20 1   
    21     8    21 1   
    22     8    22 1   
    23     9    23 1   
    24    10    11 1   
    25    10    24 1   
    26    11    25 1   
@<TRIPOS>SUBSTRUCTURE
     1 UDL         1 TEMP              0 ****  ****    0 ROOT
