@<TRIPOS>MOLECULE
UEV
   46    46     1     0     0
SMALL
abcg2


@<TRIPOS>ATOM
      1 C1          16.4150     4.8630    13.4500 c6         1 UEV       0.224800
      2 C2          17.6050     3.9530    13.8600 c6         1 UEV       0.221300
      3 C3          17.4590     3.5850    15.3610 c6         1 UEV       0.224800
      4 C4          17.5640     4.8990    16.1620 c6         1 UEV       0.231800
      5 C5          16.4130     5.8300    15.7950 c6         1 UEV       0.212300
      6 C6          16.4120     6.1470    14.3000 c6         1 UEV       0.231800
      7 O11         16.4680     5.1900    12.0910 os         1 UEV      -0.599400
      8 O12         17.6450     2.8180    13.0430 os         1 UEV      -0.593400
      9 O13         18.4270     2.6800    15.7920 os         1 UEV      -0.599400
     10 O14         17.6050     4.6780    17.5400 os         1 UEV      -0.556400
     11 O15         15.1800     5.2310    16.1480 os         1 UEV      -0.612400
     12 O16         15.3140     6.9540    13.9790 os         1 UEV      -0.556400
     13 O21         16.0180     4.1140     9.8320 o          1 UEV      -0.994667
     14 O22         19.9420     1.5830    12.8950 o          1 UEV      -0.999167
     15 O23         17.9050     0.1550    15.5060 o          1 UEV      -0.994667
     16 O24         18.5550     6.9630    18.2550 o          1 UEV      -0.986500
     17 O25         12.7720     5.9090    16.4660 o          1 UEV      -0.963000
     18 O26         16.3460     8.8100    12.5040 o          1 UEV      -0.986500
     19 O31         14.2140     3.9880    11.6610 o          1 UEV      -0.994667
     20 O32         19.5770     3.7190    11.5500 o          1 UEV      -0.999167
     21 O33         16.8070     1.4380    17.4160 o          1 UEV      -0.994667
     22 O34         18.3510     4.9830    19.8880 o          1 UEV      -0.986500
     23 O35         14.0480     4.7060    18.3530 o          1 UEV      -0.963000
     24 O36         16.1620     9.1640    15.0230 o          1 UEV      -0.986500
     25 O41         14.7450     6.2180    10.4980 o          1 UEV      -0.994667
     26 O42         18.2700     1.5740    10.9670 o          1 UEV      -0.999167
     27 O43         19.3550     1.0420    17.4260 o          1 UEV      -0.994667
     28 O44         20.1300     4.9600    18.0300 o          1 UEV      -0.986500
     29 O45         14.6740     7.1190    17.7420 os         1 UEV      -0.680800
     30 O46         14.0250     9.0380    13.5840 o          1 UEV      -0.986500
     31 O55         15.0150     9.1780    19.1490 o          1 UEV      -0.999167
     32 O65         13.3060     9.2570    17.2380 o          1 UEV      -0.999167
     33 O75         12.8020     7.8820    19.3450 o          1 UEV      -0.999167
     34 PA1         15.2540     4.8430    10.9380 p5         1 UEV       1.345900
     35 PA2         18.9760     2.4020    12.0390 p5         1 UEV       1.356900
     36 PA3         18.0790     1.2120    16.6000 p5         1 UEV       1.345900
     37 PA4         18.7650     5.4670    18.5010 p5         1 UEV       1.319400
     38 PA5         14.0510     5.7230    17.2400 p5         1 UEV       1.546800
     39 PA6         15.4870     8.6340    13.7560 p5         1 UEV       1.319400
     40 PB5         13.8610     8.4900    18.4320 p5         1 UEV       1.380900
     41 H1          15.4940     4.3050    13.6650 h1         1 UEV       0.037200
     42 H2          18.5330     4.5390    13.7460 h1         1 UEV      -0.025300
     43 H3          16.4520     3.1680    15.5070 h1         1 UEV       0.037200
     44 H4          18.4900     5.3960    15.8220 h1         1 UEV      -0.040800
     45 H5          16.5540     6.7700    16.3320 h1         1 UEV       0.079700
     46 H6          17.3620     6.6700    14.0910 h1         1 UEV      -0.040800
@<TRIPOS>BOND
     1     1     2 1   
     2     1     6 1   
     3     1     7 1   
     4     1    41 1   
     5     2     3 1   
     6     2     8 1   
     7     2    42 1   
     8     3     4 1   
     9     3     9 1   
    10     3    43 1   
    11     4     5 1   
    12     4    10 1   
    13     4    44 1   
    14     5     6 1   
    15     5    11 1   
    16     5    45 1   
    17     6    12 1   
    18     6    46 1   
    19     7    34 1   
    20     8    35 1   
    21     9    36 1   
    22    10    37 1   
    23    11    38 1   
    24    12    39 1   
    25    13    34 1   
    26    14    35 1   
    27    15    36 1   
    28    16    37 1   
    29    17    38 1   
    30    18    39 1   
    31    19    34 1   
    32    20    35 1   
    33    21    36 1   
    34    22    37 1   
    35    23    38 1   
    36    24    39 1   
    37    25    34 1   
    38    26    35 1   
    39    27    36 1   
    40    28    37 1   
    41    29    38 1   
    42    29    40 1   
    43    30    39 1   
    44    31    40 1   
    45    32    40 1   
    46    33    40 1   
@<TRIPOS>SUBSTRUCTURE
     1 UEV         1 TEMP              0 ****  ****    0 ROOT
