@<TRIPOS>MOLECULE
UG3
   21    20     1     0     0
SMALL
abcg2


@<TRIPOS>ATOM
      1 O01         32.4350   -63.1580     1.4560 o          1 UG3      -0.986667
      2 O03         31.4470   -65.4730     1.9470 o          1 UG3      -0.986667
      3 O04         30.7430   -63.4580     3.3690 o          1 UG3      -0.986667
      4 O05         29.9580   -63.7370     0.9230 os         1 UG3      -0.737800
      5 O07         29.6110   -61.1660     1.0690 o          1 UG3      -0.946500
      6 O08         27.7600   -62.7510     0.2040 o          1 UG3      -0.946500
      7 O09         29.8640   -62.2490    -1.1690 os         1 UG3      -0.745800
      8 O11         31.7480   -63.7680    -2.0210 o          1 UG3      -0.934500
      9 O12         30.1730   -62.4970    -3.6360 o          1 UG3      -0.934500
     10 O13         29.3630   -64.5220    -2.2210 os         1 UG3      -0.745800
     11 O15         27.1250   -63.7150    -3.2530 o          1 UG3      -0.946500
     12 O16         27.4330   -66.1020    -2.2900 o          1 UG3      -0.946500
     13 O17         28.6790   -65.4250    -4.4240 os         1 UG3      -0.737800
     14 O19         26.5190   -66.1690    -5.6370 o          1 UG3      -0.986667
     15 O20         28.8500   -66.7370    -6.5610 o          1 UG3      -0.986667
     16 O21         27.9930   -64.3150    -6.6360 o          1 UG3      -0.986667
     17 P02         31.2800   -63.9620     2.0360 p5         1 UG3       1.394900
     18 P06         29.2240   -62.4320     0.3560 p5         1 UG3       1.583800
     19 P10         30.3790   -63.2500    -2.3560 p5         1 UG3       1.585800
     20 P14         27.9850   -64.9330    -3.0610 p5         1 UG3       1.583800
     21 P18         27.9260   -65.6820    -5.9670 p5         1 UG3       1.394900
@<TRIPOS>BOND
     1     1    17 1   
     2     2    17 1   
     3     3    17 1   
     4     4    17 1   
     5     4    18 1   
     6     5    18 1   
     7     6    18 1   
     8     7    18 1   
     9     7    19 1   
    10     8    19 1   
    11     9    19 1   
    12    10    19 1   
    13    10    20 1   
    14    11    20 1   
    15    12    20 1   
    16    13    20 1   
    17    13    21 1   
    18    14    21 1   
    19    15    21 1   
    20    16    21 1   
@<TRIPOS>SUBSTRUCTURE
     1 UG3         1 TEMP              0 ****  ****    0 ROOT
