@<TRIPOS>MOLECULE
UII
   48    49     1     0     0
SMALL
abcg2


@<TRIPOS>ATOM
      1 C1          -1.0360     4.4210    13.8950 c3         1 UII       0.277100
      2 C3          -1.9710     6.1750    15.4210 ca         1 UII      -0.181000
      3 C4          -2.2810     7.5040    15.6950 ca         1 UII      -0.076000
      4 C6          -1.5210     8.1800    13.4980 ca         1 UII       0.357000
      5 C7          -0.5470     8.9330    11.3880 c3         1 UII       0.042800
      6 C8           0.9480     8.6070    11.6480 c          1 UII       0.696000
      7 C11         -3.8680     3.5400    13.5420 ca         1 UII      -0.026300
      8 C13         -4.4340     1.6810    14.9720 ca         1 UII      -0.016500
      9 C14         -5.3790     2.4780    15.6100 ca         1 UII      -0.273500
     10 N2          -7.3370     0.7910    16.1470 n8         1 UII      -1.003100
     11 O5          -1.5490     2.3300    10.7080 o          1 UII      -0.558500
     12 O4           0.4310     2.5190    12.2330 o          1 UII      -0.558500
     13 C           -0.0060     4.4370    10.5020 c3         1 UII      -0.352100
     14 N           -1.6170     3.9090    12.6560 n3         1 UII      -0.793500
     15 C16         -4.8190     4.3160    14.1910 ca         1 UII      -0.114500
     16 C15         -5.5820     3.7930    15.2250 ca         1 UII      -0.016500
     17 S1          -6.3100     1.8030    16.9570 sy         1 UII       1.123600
     18 O3          -5.4540     0.9420    17.7610 o          1 UII      -0.551000
     19 O2          -6.9980     2.9010    17.6200 o          1 UII      -0.551000
     20 C12         -3.6860     2.2160    13.9400 ca         1 UII      -0.114500
     21 C2          -1.4250     5.8490    14.1870 ca         1 UII      -0.075300
     22 C9          -1.2080     6.8400    13.2370 ca         1 UII      -0.165000
     23 C5          -2.0640     8.4930    14.7570 ca         1 UII      -0.198000
     24 O1           1.4310     8.9810    12.7300 o          1 UII      -0.722000
     25 O            1.5320     8.0250    10.7100 o          1 UII      -0.722000
     26 H3          -1.3390     3.7850    14.7310 h1         1 UII       0.062200
     27 H4           0.0500     4.3470    13.8310 h1         1 UII       0.062200
     28 H5          -2.1540     5.4050    16.1600 ha         1 UII       0.099000
     29 H6          -2.7040     7.7710    16.6560 ha         1 UII       0.092000
     30 H10         -0.9920     8.1470    10.7730 h1         1 UII       0.030700
     31 H9          -0.5940     9.8410    10.7810 h1         1 UII       0.030700
     32 H13         -3.2430     5.1960    12.3400 h1         1 UII       0.070200
     33 H14         -3.3230     3.6710    11.4840 h1         1 UII       0.070200
     34 H16         -4.2790     0.6530    15.2740 ha         1 UII       0.131500
     35 H17         -7.7460     0.0960    16.7660 hn         1 UII       0.468000
     36 H18         -8.0660     1.2920    15.6490 hn         1 UII       0.468000
     37 H2           0.5920     3.9650     9.7240 h1         1 UII       0.113033
     38 H1          -0.8240     4.9980    10.0530 h1         1 UII       0.113033
     39 H            0.6220     5.0990    11.0940 h1         1 UII       0.113033
     40 H20         -4.9590     5.3500    13.8990 ha         1 UII       0.128500
     41 H19         -6.3120     4.4150    15.7250 ha         1 UII       0.131500
     42 H15         -2.9440     1.6000    13.4470 ha         1 UII       0.128500
     43 H12         -0.7850     6.5620    12.2810 ha         1 UII       0.123000
     44 H7          -2.3140     9.5230    14.9880 ha         1 UII       0.099000
     45 H8          -1.3190    10.0960    12.9280 hn         1 UII       0.459000
     46 C10         -3.0360     4.1270    12.4300 c3         1 UII       0.269100
     47 S           -0.6790     3.1530    11.5360 s6         1 UII       1.227100
     48 N1          -1.3570     9.1610    12.5570 nu         1 UII      -0.916200
@<TRIPOS>BOND
     1     1    14 1   
     2     1    21 1   
     3     1    26 1   
     4     1    27 1   
     5     2     3 ar  
     6     2    21 ar  
     7     2    28 1   
     8     3    23 ar  
     9     3    29 1   
    10     4    22 ar  
    11     4    23 ar  
    12     4    48 1   
    13     5     6 1   
    14     5    30 1   
    15     5    31 1   
    16     5    48 1   
    17     6    24 1   
    18     6    25 1   
    19     7    15 ar  
    20     7    20 ar  
    21     7    46 1   
    22     8     9 ar  
    23     8    20 ar  
    24     8    34 1   
    25     9    16 ar  
    26     9    17 1   
    27    10    17 1   
    28    10    35 1   
    29    10    36 1   
    30    11    47 2   
    31    12    47 2   
    32    13    37 1   
    33    13    38 1   
    34    13    39 1   
    35    13    47 1   
    36    14    46 1   
    37    14    47 1   
    38    15    16 ar  
    39    15    40 1   
    40    16    41 1   
    41    17    18 2   
    42    17    19 2   
    43    20    42 1   
    44    21    22 ar  
    45    22    43 1   
    46    23    44 1   
    47    32    46 1   
    48    33    46 1   
    49    45    48 1   
@<TRIPOS>SUBSTRUCTURE
     1 UII         1 TEMP              0 ****  ****    0 ROOT
