@<TRIPOS>MOLECULE
UPA
   62    66     1     0     0
SMALL
abcg2


@<TRIPOS>ATOM
      1 N1U          6.3500   -16.3060    13.1320 n          1 UPA      -0.330000
      2 C2U          5.2270   -15.5320    13.3330 c          1 UPA       0.608000
      3 O2U          4.9340   -14.6080    12.6020 o          1 UPA      -0.546000
      4 N3U          4.4710   -15.8800    14.4200 ns         1 UPA      -0.472500
      5 O4U          3.9540   -17.0840    16.2670 o          1 UPA      -0.559000
      6 C4U          4.7110   -16.8990    15.3330 c          1 UPA       0.596200
      7 C5U          5.9030   -17.6530    15.0410 cc         1 UPA      -0.425200
      8 C6U          6.6580   -17.3330    13.9750 cd         1 UPA       0.032600
      9 C5D         10.1660   -17.9230    12.2190 c3         1 UPA       0.158600
     10 O5D          9.7750   -18.3200    13.5110 oh         1 UPA      -0.728000
     11 C4D          9.3750   -16.7160    11.7790 c5         1 UPA       0.147300
     12 O4D          7.9910   -17.0500    11.6270 os         1 UPA      -0.463000
     13 C3D          9.3630   -15.5120    12.7220 c5         1 UPA       0.143300
     14 O3D         10.5700   -14.8210    12.7130 oh         1 UPA      -0.770000
     15 C2D          8.1110   -14.7800    12.2270 c5         1 UPA       0.171300
     16 O2D          8.3120   -14.1480    10.9800 os         1 UPA      -0.592400
     17 C1D          7.1800   -15.9690    11.9550 c5         1 UPA       0.330700
     18 P            8.9780   -12.6510    10.8750 p5         1 UPA       1.414800
     19 O1P          7.9790   -11.6620    10.3830 o          1 UPA      -0.802500
     20 O2P          9.7490   -12.3870    12.1480 o          1 UPA      -0.802500
     21 O5B         10.0220   -13.0480     9.6770 os         1 UPA      -0.615400
     22 C5B         10.5350   -12.0500     8.8190 c3         1 UPA       0.213600
     23 C4B         11.2220   -12.7000     7.6390 c5         1 UPA       0.163300
     24 O4B         12.3840   -13.4160     8.0680 os         1 UPA      -0.445000
     25 C3B         10.3560   -13.6980     6.8680 c5         1 UPA       0.157300
     26 O3B         10.6840   -13.5890     5.5050 oh         1 UPA      -0.728000
     27 C2B         10.8120   -15.0340     7.4470 c5         1 UPA       0.087300
     28 O2B         10.5680   -16.0880     6.5660 oh         1 UPA      -0.718000
     29 C1B         12.3020   -14.7570     7.6830 c5         1 UPA       0.287300
     30 N9A         12.8910   -15.5780     8.7110 na         1 UPA      -0.287300
     31 C8A         12.6040   -15.5560    10.0500 cc         1 UPA       0.443700
     32 N7A         13.2530   -16.4570    10.7270 nd         1 UPA      -0.573100
     33 C6A         14.8960   -18.2040     9.8680 ca         1 UPA       0.441900
     34 N6A         15.1730   -18.8280    11.0140 nv         1 UPA      -1.075900
     35 C5A         14.0030   -17.1190     9.7900 ca         1 UPA      -0.095600
     36 C4A         13.7960   -16.5850     8.5270 ca         1 UPA       0.114500
     37 N3A         14.3650   -16.9890     7.3940 nb         1 UPA      -0.213000
     38 C2A         15.1870   -18.0030     7.5950 ca         1 UPA       0.164900
     39 N1A         15.4760   -18.6210     8.7380 nb         1 UPA      -0.314000
     40 H3U          3.6470   -15.3110    14.5730 hn         1 UPA       0.333500
     41 H5U          6.1850   -18.4740    15.6820 ha         1 UPA       0.212000
     42 H6U          7.5570   -17.8850    13.7440 h4         1 UPA       0.241000
     43 H5U1        11.2260   -17.6460    12.1770 h1         1 UPA       0.038700
     44 H5U2        10.0190   -18.7250    11.4860 h1         1 UPA       0.038700
     45 HOU5        10.1790   -19.1690    13.7090 ho         1 UPA       0.496000
     46 H4U          9.7810   -16.4050    10.8080 h1         1 UPA       0.070700
     47 H7           9.1340   -15.8620    13.7410 h1         1 UPA       0.048700
     48 HOU3        10.3860   -13.8530    12.6190 ho         1 UPA       0.586000
     49 H2U          7.6950   -14.0940    12.9700 h1         1 UPA       0.078700
     50 H1U          6.4900   -15.7480    11.1390 h2         1 UPA       0.117700
     51 H5A1         9.7390   -11.4080     8.4310 h1         1 UPA       0.044700
     52 H5A2        11.2490   -11.4070     9.3450 h1         1 UPA       0.044700
     53 H4A         11.5320   -11.8910     6.9680 h1         1 UPA       0.072700
     54 H3A          9.2860   -13.5260     7.0380 h1         1 UPA       0.079700
     55 HOA3        10.2430   -14.3000     5.0270 ho         1 UPA       0.519000
     56 H2A         10.3170   -15.1900     8.4130 h1         1 UPA       0.089700
     57 HOA2        10.6370   -16.9200     7.0430 ho         1 UPA       0.517000
     58 H1A         12.8680   -14.9580     6.7660 h2         1 UPA       0.098700
     59 H8A         11.9030   -14.8510    10.4700 h5         1 UPA       0.113800
     60 H6A1        15.8280   -19.5910    11.0310 hn         1 UPA       0.502000
     61 H6A2        14.7650   -18.5300    11.8820 hn         1 UPA       0.502000
     62 H9          15.6940   -18.3890     6.7170 h5         1 UPA       0.036100
@<TRIPOS>BOND
     1     1     2 1   
     2     1     8 1   
     3     1    17 1   
     4     2     3 2   
     5     2     4 1   
     6     4     6 1   
     7     4    40 1   
     8     5     6 2   
     9     6     7 1   
    10     7     8 2   
    11     7    41 1   
    12     8    42 1   
    13     9    10 1   
    14     9    11 1   
    15     9    43 1   
    16     9    44 1   
    17    10    45 1   
    18    11    12 1   
    19    11    13 1   
    20    11    46 1   
    21    12    17 1   
    22    13    14 1   
    23    13    15 1   
    24    13    47 1   
    25    14    48 1   
    26    15    16 1   
    27    15    17 1   
    28    15    49 1   
    29    16    18 1   
    30    17    50 1   
    31    18    19 1   
    32    18    20 1   
    33    18    21 1   
    34    21    22 1   
    35    22    23 1   
    36    22    51 1   
    37    22    52 1   
    38    23    24 1   
    39    23    25 1   
    40    23    53 1   
    41    24    29 1   
    42    25    26 1   
    43    25    27 1   
    44    25    54 1   
    45    26    55 1   
    46    27    28 1   
    47    27    29 1   
    48    27    56 1   
    49    28    57 1   
    50    29    30 1   
    51    29    58 1   
    52    30    31 1   
    53    30    36 1   
    54    31    32 2   
    55    31    59 1   
    56    32    35 1   
    57    33    34 1   
    58    33    35 ar  
    59    33    39 ar  
    60    34    60 1   
    61    34    61 1   
    62    35    36 ar  
    63    36    37 ar  
    64    37    38 ar  
    65    38    39 ar  
    66    38    62 1   
@<TRIPOS>SUBSTRUCTURE
     1 UPA         1 TEMP              0 ****  ****    0 ROOT
