@<TRIPOS>MOLECULE
UPV
   50    51     1     0     0
SMALL
abcg2


@<TRIPOS>ATOM
      1 P           41.8790    25.5360    31.9480 p5         1 UPV       1.266900
      2 N1          41.3390    29.5870    28.5250 n          1 UPV      -0.329000
      3 C2          40.7110    30.3180    27.5400 c          1 UPV       0.604000
      4 O2          40.9380    31.4970    27.3540 o          1 UPV      -0.627000
      5 N3          39.8100    29.6170    26.7860 ns         1 UPV      -0.475500
      6 C4          39.4360    28.2850    26.9190 c          1 UPV       0.586200
      7 O4          38.6060    27.8020    26.1710 o          1 UPV      -0.582000
      8 C5          40.1190    27.6130    27.9930 cc         1 UPV      -0.400200
      9 C6          41.0290    28.2750    28.7310 cd         1 UPV       0.025600
     10 CA          42.3200    33.4240    30.4260 c3         1 UPV       0.397600
     11 CB          42.7810    34.7620    28.5360 c          1 UPV       0.616100
     12 CG          43.3960    34.8230    27.1440 c3         1 UPV      -0.095000
     13 C1          42.3640    30.2920    29.3320 c5         1 UPV       0.326700
     14 C7          41.7260    31.1190    30.4580 c5         1 UPV       0.117300
     15 O1          42.5950    32.1540    30.8630 os         1 UPV      -0.414000
     16 C3          41.6790    30.0860    31.5760 c5         1 UPV       0.142300
     17 O3          41.5210    30.6830    32.8260 oh         1 UPV      -0.728000
     18 C8          43.0130    29.3620    31.3740 c5         1 UPV       0.114300
     19 O6          43.1980    29.3680    29.9490 os         1 UPV      -0.428000
     20 C9          43.0930    27.9520    31.9190 c3         1 UPV       0.250600
     21 O5          42.0760    27.1670    31.3950 os         1 UPV      -0.603400
     22 OB1         42.9140    33.5860    29.1330 os         1 UPV      -0.464100
     23 OB2         42.2010    35.6870    29.0520 o          1 UPV      -0.527000
     24 CD1         44.3120    33.6380    26.8410 c3         1 UPV      -0.081767
     25 CD2         44.1880    36.1280    27.0250 c3         1 UPV      -0.081767
     26 CD3         42.2330    34.8420    26.1410 c3         1 UPV      -0.081767
     27 OP3         41.3690    25.6900    33.3760 o          1 UPV      -0.914500
     28 OP2         40.8580    25.0370    30.9350 o          1 UPV      -0.914500
     29 HN3         39.3510    30.1500    26.0570 hn         1 UPV       0.309500
     30 H5          39.9050    26.5770    28.2070 ha         1 UPV       0.265000
     31 H6          41.5470    27.7800    29.5440 h4         1 UPV       0.321000
     32 H7          43.0390    28.0380    33.0160 h1         1 UPV       0.013200
     33 H1          42.9350    30.9110    28.6390 h2         1 UPV       0.089700
     34 HD1         43.7770    32.6890    26.8510 hc         1 UPV       0.041478
     35 HD1A        45.1430    33.5730    27.5440 hc         1 UPV       0.041478
     36 HD1B        44.7340    33.7640    25.8430 hc         1 UPV       0.041478
     37 H2          40.7410    31.5150    30.1900 h1         1 UPV       0.064700
     38 HD2         43.5590    37.0010    27.1930 hc         1 UPV       0.041478
     39 HD2A        45.0170    36.1620    27.7330 hc         1 UPV       0.041478
     40 HD2B        44.6070    36.2080    26.0210 hc         1 UPV       0.041478
     41 H3          40.8580    29.3900    31.3600 h1         1 UPV       0.096700
     42 HD3         42.6320    34.9030    25.1280 hc         1 UPV       0.041478
     43 HD3A        41.5810    35.7020    26.2970 hc         1 UPV       0.041478
     44 HD3B        41.6280    33.9370    26.2070 hc         1 UPV       0.041478
     45 H4          43.8160    29.9470    31.8400 h1         1 UPV       0.036700
     46 H5'A        44.0900    27.5470    31.6980 h1         1 UPV       0.013200
     47 HA          42.7790    34.1230    31.1270 h2         1 UPV       0.051700
     48 HAA         41.2440    33.6190    30.3590 h2         1 UPV       0.051700
     49 HO3         41.2620    30.0030    33.4560 ho         1 UPV       0.530000
     50 OP1         43.2730    24.9310    31.8350 o          1 UPV      -0.914500
@<TRIPOS>BOND
     1     1    21 1   
     2     1    27 1   
     3     1    28 1   
     4     1    50 1   
     5     2     3 1   
     6     2     9 1   
     7     2    13 1   
     8     3     4 2   
     9     3     5 1   
    10     5     6 1   
    11     5    29 1   
    12     6     7 2   
    13     6     8 1   
    14     8     9 2   
    15     8    30 1   
    16     9    31 1   
    17    10    15 1   
    18    10    22 1   
    19    10    47 1   
    20    10    48 1   
    21    11    12 1   
    22    11    22 1   
    23    11    23 2   
    24    12    24 1   
    25    12    25 1   
    26    12    26 1   
    27    13    14 1   
    28    13    19 1   
    29    13    33 1   
    30    14    15 1   
    31    14    16 1   
    32    14    37 1   
    33    16    17 1   
    34    16    18 1   
    35    16    41 1   
    36    17    49 1   
    37    18    19 1   
    38    18    20 1   
    39    18    45 1   
    40    20    21 1   
    41    20    32 1   
    42    20    46 1   
    43    24    34 1   
    44    24    35 1   
    45    24    36 1   
    46    25    38 1   
    47    25    39 1   
    48    25    40 1   
    49    26    42 1   
    50    26    43 1   
    51    26    44 1   
@<TRIPOS>SUBSTRUCTURE
     1 UPV         1 TEMP              0 ****  ****    0 ROOT
