@<TRIPOS>MOLECULE
UTL
   73    74     1     0     0
SMALL
abcg2


@<TRIPOS>ATOM
      1 C13          4.5530     3.0000    -1.6130 c5         1 UTL      -0.094400
      2 C18         -4.5630     1.0320    -1.1120 c3         1 UTL      -0.087100
      3 C17         -4.0720    -0.5620     0.7610 c3         1 UTL      -0.087100
      4 C16         -4.2870     0.8950     0.3780 c3         1 UTL       0.091000
      5 C15         -3.1020     1.7740     0.7940 c3         1 UTL       0.190600
      6 C19         -7.0980     0.8330     0.6640 ca         1 UTL      -0.123000
      7 C21         -8.6500    -1.0160     0.5670 ca         1 UTL      -0.169000
      8 C22         -9.2930    -0.3850    -0.4810 ca         1 UTL       0.188000
      9 C24         -7.7890     1.4570    -0.3730 ca         1 UTL      -0.041000
     10 C1          -0.9900     0.6610     0.7480 c          1 UTL       0.641100
     11 C2           1.0320    -0.6360     0.2370 c3         1 UTL       0.041700
     12 C3           0.8750    -2.1240    -0.1100 c3         1 UTL      -0.089400
     13 C4          -0.2630    -2.8510     0.6060 c3         1 UTL      -0.054700
     14 C5          -0.4400    -4.2380    -0.0050 c3         1 UTL      -0.092100
     15 C6          -0.0250    -2.9570     2.1080 c3         1 UTL      -0.092100
     16 C7           2.2470    -0.0990    -0.5190 c          1 UTL       0.587100
     17 C8           4.7120     0.0990    -0.3960 c3         1 UTL       0.097700
     18 C9           5.3120     1.3550     0.2300 c3         1 UTL      -0.071400
     19 C10          4.5380     2.6110    -0.1340 c5         1 UTL      -0.143700
     20 C14          5.6170    -1.1430    -0.3240 c3         1 UTL      -0.094700
     21 C11          5.0880     3.8510     0.5580 c          1 UTL       0.559000
     22 C12          4.4390     4.5250    -1.5970 c5         1 UTL       0.100000
     23 C20         -7.5500    -0.3950     1.1410 ca         1 UTL      -0.041000
     24 C23         -8.8910     0.8500    -0.9560 ca         1 UTL      -0.169000
     25 F1         -10.3410    -0.9890    -1.0570 f          1 UTL      -0.179000
     26 N1          -0.1240     0.1370    -0.1350 ns         1 UTL      -0.484900
     27 N2           3.4040    -0.2010     0.1520 ns         1 UTL      -0.494900
     28 N3           5.0300     4.8650    -0.3210 ns         1 UTL      -0.524900
     29 O1          -0.9380     0.5400     1.9540 o          1 UTL      -0.540000
     30 O2           5.4970     3.9150     1.7060 o          1 UTL      -0.548000
     31 O3           5.0590    -2.2180    -1.0140 oh         1 UTL      -0.629000
     32 O4           2.1380     0.3310    -1.6580 o          1 UTL      -0.645100
     33 O5          -1.9320     1.3670     0.0990 os         1 UTL      -0.468100
     34 S1          -5.6810     1.6130     1.3780 ss         1 UTL      -0.246000
     35 H1           5.5060     2.7060    -2.0610 hc         1 UTL       0.064200
     36 H2           3.7560     2.5340    -2.1880 hc         1 UTL       0.064200
     37 H3          -3.7100     0.6640    -1.6840 hc         1 UTL       0.047200
     38 H4          -5.4290     0.4430    -1.4110 hc         1 UTL       0.047200
     39 H5          -4.7420     2.0700    -1.3950 hc         1 UTL       0.047200
     40 H6          -3.2610    -1.0020     0.1750 hc         1 UTL       0.047200
     41 H7          -3.8340    -0.6720     1.8190 hc         1 UTL       0.047200
     42 H8          -4.9660    -1.1500     0.5510 hc         1 UTL       0.047200
     43 H9          -3.2880     2.8110     0.5100 h1         1 UTL       0.075200
     44 H10         -2.9480     1.7350     1.8750 h1         1 UTL       0.075200
     45 H11         -8.9980    -1.9740     0.9290 ha         1 UTL       0.132000
     46 H12         -7.4590     2.4210    -0.7380 ha         1 UTL       0.131000
     47 H13          1.1860    -0.5190     1.3100 h1         1 UTL       0.102700
     48 H14          0.7350    -2.2070    -1.1920 hc         1 UTL       0.058200
     49 H15          1.8150    -2.6350     0.1220 hc         1 UTL       0.058200
     50 H16         -1.1910    -2.2930     0.4400 hc         1 UTL       0.036700
     51 H17          0.4650    -4.8390     0.1190 hc         1 UTL       0.035200
     52 H18         -1.2620    -4.7750     0.4700 hc         1 UTL       0.035200
     53 H19         -0.6540    -4.1790    -1.0730 hc         1 UTL       0.035200
     54 H20          0.0410    -1.9810     2.5880 hc         1 UTL       0.035200
     55 H21         -0.8370    -3.5020     2.5920 hc         1 UTL       0.035200
     56 H22          0.9050    -3.4930     2.3160 hc         1 UTL       0.035200
     57 H23          4.5730     0.2770    -1.4650 h1         1 UTL       0.060700
     58 H24          5.3480     1.2530     1.3140 hc         1 UTL       0.080200
     59 H25          6.3450     1.4610    -0.1130 hc         1 UTL       0.080200
     60 H26          3.5010     2.5110     0.2110 hc         1 UTL       0.076700
     61 H27          6.5650    -0.9050    -0.8130 h2         1 UTL       0.094700
     62 H29          4.9780     4.9950    -2.4190 h1         1 UTL       0.032200
     63 H30          3.3960     4.8530    -1.6500 h1         1 UTL       0.032200
     64 H31         -7.0380    -0.8760     1.9630 ha         1 UTL       0.131000
     65 H32         -9.4240     1.3280    -1.7670 ha         1 UTL       0.132000
     66 H33         -0.2840     0.2890    -1.1200 hn         1 UTL       0.338500
     67 H34          3.3990    -0.5730     1.0940 hn         1 UTL       0.364500
     68 H35          5.2380     5.8150    -0.0540 hn         1 UTL       0.313500
     69 H36          4.1940    -2.4200    -0.6390 ho         1 UTL       0.433000
     70 S2           6.0680    -1.6630     1.3830 s6         1 UTL       1.284600
     71 O6           7.0030    -0.6430     1.8910 o          1 UTL      -0.678200
     72 O7           4.7810    -1.7050     2.1230 o          1 UTL      -0.678200
     73 O8           6.6850    -2.9900     1.2340 o          1 UTL      -0.678200
@<TRIPOS>BOND
     1     1    19 1   
     2     1    22 1   
     3     1    35 1   
     4     1    36 1   
     5     2     4 1   
     6     2    37 1   
     7     2    38 1   
     8     2    39 1   
     9     3     4 1   
    10     3    40 1   
    11     3    41 1   
    12     3    42 1   
    13     4     5 1   
    14     4    34 1   
    15     5    33 1   
    16     5    43 1   
    17     5    44 1   
    18     6     9 ar  
    19     6    23 ar  
    20     6    34 1   
    21     7     8 ar  
    22     7    23 ar  
    23     7    45 1   
    24     8    24 ar  
    25     8    25 1   
    26     9    24 ar  
    27     9    46 1   
    28    10    26 1   
    29    10    29 2   
    30    10    33 1   
    31    11    12 1   
    32    11    16 1   
    33    11    26 1   
    34    11    47 1   
    35    12    13 1   
    36    12    48 1   
    37    12    49 1   
    38    13    14 1   
    39    13    15 1   
    40    13    50 1   
    41    14    51 1   
    42    14    52 1   
    43    14    53 1   
    44    15    54 1   
    45    15    55 1   
    46    15    56 1   
    47    16    27 1   
    48    16    32 2   
    49    17    18 1   
    50    17    20 1   
    51    17    27 1   
    52    17    57 1   
    53    18    19 1   
    54    18    58 1   
    55    18    59 1   
    56    19    21 1   
    57    19    60 1   
    58    20    31 1   
    59    20    61 1   
    60    20    70 1   
    61    21    28 1   
    62    21    30 2   
    63    22    28 1   
    64    22    62 1   
    65    22    63 1   
    66    23    64 1   
    67    24    65 1   
    68    26    66 1   
    69    27    67 1   
    70    28    68 1   
    71    31    69 1   
    72    70    71 1   
    73    70    72 1   
    74    70    73 1   
@<TRIPOS>SUBSTRUCTURE
     1 UTL         1 TEMP              0 ****  ****    0 ROOT
