@<TRIPOS>MOLECULE
UU5
   21    20     1     0     0
SMALL
abcg2


@<TRIPOS>ATOM
      1 N           -2.2550     1.8230     0.0950 n8         1 UU5      -0.990200
      2 CA          -2.1470     0.4290    -0.3020 c3         1 UU5       0.023500
      3 C           -3.3380    -0.3960     0.2480 c          1 UU5       0.727000
      4 O           -3.8980     0.0350     1.2740 o          1 UU5      -0.726500
      5 CB          -0.8490    -0.2730     0.1330 c3         1 UU5      -0.121400
      6 CG           0.3970     0.3330    -0.4960 c3         1 UU5       0.085000
      7 ND           1.5870    -0.3920    -0.1000 ns         1 UU5      -0.486900
      8 CE           2.7680     0.1780     0.1440 c          1 UU5       0.483100
      9 CF           3.8340    -0.8270     0.5800 c          1 UU5       0.484900
     10 OE           3.0290     1.3650     0.0600 o          1 UU5      -0.576100
     11 OXT         -3.6000    -1.4480    -0.3670 o          1 UU5      -0.726500
     12 H           -2.3720     1.8680     1.0990 hn         1 UU5       0.379500
     13 H2          -1.4110     2.3340    -0.1300 hn         1 UU5       0.379500
     14 HA          -2.1890     0.3860    -1.3970 h1         1 UU5       0.044700
     15 H5          -0.7600    -0.2360     1.2240 hc         1 UU5       0.048200
     16 H6          -0.9100    -1.3280    -0.1500 hc         1 UU5       0.048200
     17 H7           0.3030     0.3240    -1.5870 h1         1 UU5       0.048700
     18 H8           0.5270     1.3710    -0.1930 h1         1 UU5       0.048700
     19 H9           1.5110    -1.3960    -0.0310 hn         1 UU5       0.312500
     20 H10          3.5360    -1.8900     0.6080 h4         1 UU5      -0.014800
     21 O2           4.9370    -0.4660     0.8760 o          1 UU5      -0.471100
@<TRIPOS>BOND
     1     1     2 1   
     2     1    12 1   
     3     1    13 1   
     4     2     3 1   
     5     2     5 1   
     6     2    14 1   
     7     3     4 1   
     8     3    11 1   
     9     5     6 1   
    10     5    15 1   
    11     5    16 1   
    12     6     7 1   
    13     6    17 1   
    14     6    18 1   
    15     7     8 1   
    16     7    19 1   
    17     8     9 1   
    18     8    10 2   
    19     9    20 1   
    20     9    21 2   
@<TRIPOS>SUBSTRUCTURE
     1 UU5         1 TEMP              0 ****  ****    0 ROOT
