@<TRIPOS>MOLECULE
UYP
   86    92     1     0     0
SMALL
abcg2


@<TRIPOS>ATOM
      1 C4          20.8460    11.2500    12.6320 ca         1 UYP       0.150500
      2 C5          20.3730    12.2200    11.7630 ca         1 UYP      -0.105600
      3 C6          21.3420    12.9560    11.0520 ca         1 UYP       0.450900
      4 C8          18.6550    11.3200    12.6110 cc         1 UYP       0.477700
      5 N1          22.6290    12.6690    11.2750 nb         1 UYP      -0.304000
      6 N3          22.1230    10.9550    12.8610 nb         1 UYP      -0.211000
      7 C2          22.9370    11.7110    12.1440 ca         1 UYP       0.186900
      8 CAA         13.3110     8.4870    12.4480 c3         1 UYP       0.141100
      9 CAC         14.7160    10.3860    12.8900 c3         1 UYP       0.248900
     10 CAD         16.1250    10.7610    12.9150 c1         1 UYP      -0.111100
     11 CAE         17.3050    10.9890    12.8640 cg         1 UYP      -0.092200
     12 CAP         19.7610     9.5560    14.0860 c5         1 UYP       0.314300
     13 CAR         18.5000     7.6710    14.5530 c5         1 UYP       0.149300
     14 CAS         16.9850     7.5970    14.3940 c3         1 UYP       0.118000
     15 CAU         16.5740     6.0430    12.5600 c          1 UYP       0.662100
     16 CAX         15.7250     4.8200    10.5550 ca         1 UYP       0.008000
     17 CAY         15.0070     5.0210     9.3710 ca         1 UYP      -0.159000
     18 CAZ         14.6530     3.9560     8.5620 ca         1 UYP      -0.083000
     19 CBA         14.9980     2.6580     8.9160 ca         1 UYP      -0.158000
     20 CBB         15.7110     2.4550    10.0880 ca         1 UYP      -0.083000
     21 CBC         16.0810     3.5150    10.9060 ca         1 UYP      -0.159000
     22 CBD         18.8950     8.3220    15.8770 c5         1 UYP       0.111300
     23 CBF         19.1060     9.7790    15.4440 c5         1 UYP       0.078300
     24 CBH         14.3730     9.5820    10.6080 c3         1 UYP       0.163800
     25 CBI         15.6220    10.1880    10.0070 c5         1 UYP       0.118300
     26 CBK         17.5990     9.3750     9.0880 c5         1 UYP       0.277300
     27 CBL         17.0350    10.4400     8.1320 c5         1 UYP       0.140300
     28 CBN         15.5500    10.4060     8.4910 c5         1 UYP       0.144300
     29 CBQ         17.1580     7.5140     7.3830 cc         1 UYP       0.382700
     30 CBS         18.2070     5.9300     8.3020 ca         1 UYP      -0.105600
     31 CBT         18.4100     7.0350     9.1090 ca         1 UYP       0.136500
     32 CBV         19.6090     5.8910    10.5450 ca         1 UYP       0.192900
     33 CBX         18.7830     4.7250     8.7410 ca         1 UYP       0.449900
     34 N6          21.0210    13.9060    10.1760 nv         1 UYP      -1.067900
     35 N7          19.0110    12.2480    11.7620 nd         1 UYP      -0.533100
     36 N9          19.7350    10.6770    13.1810 na         1 UYP      -0.260300
     37 NAB         14.4850     9.2340    12.0210 n3         1 UYP      -0.725600
     38 NAT         16.5490     7.3000    13.0560 ns         1 UYP      -0.510900
     39 NAW         16.0270     5.9550    11.3000 ns         1 UYP      -0.163000
     40 NBP         17.7340     8.0570     8.5030 na         1 UYP      -0.313300
     41 NBR         17.4260     6.2540     7.2220 nd         1 UYP      -0.538100
     42 NBU         19.1120     7.0760    10.2380 nb         1 UYP      -0.200000
     43 NBW         19.4850     4.7450     9.8790 nb         1 UYP      -0.292000
     44 NBY         18.6730     3.5790     8.0620 nv         1 UYP      -1.054900
     45 OAQ         19.0770     8.4770    13.5200 os         1 UYP      -0.422000
     46 OAV         17.0410     5.0890    13.1690 o          1 UYP      -0.643100
     47 OBE         20.0970     7.7540    16.3280 oh         1 UYP      -0.701000
     48 OBG         19.9520    10.5250    16.2670 oh         1 UYP      -0.695000
     49 OBJ         16.7160     9.3020    10.1780 os         1 UYP      -0.427000
     50 OBM         17.5300    11.7070     8.4650 oh         1 UYP      -0.679000
     51 OBO         14.8990    11.5720     8.0930 oh         1 UYP      -0.676000
     52 H1          23.9980    11.5280    12.2780 h5         1 UYP       0.048100
     53 H2          13.4390     8.1520    13.4770 h1         1 UYP       0.042367
     54 H3          12.3840     9.0710    12.3890 h1         1 UYP       0.042367
     55 H4          13.1970     7.6040    11.8200 h1         1 UYP       0.042367
     56 H5          14.1060    11.2560    12.6050 h1         1 UYP       0.056700
     57 H6          14.4140    10.1210    13.9060 h1         1 UYP       0.056700
     58 H7          20.8250     9.3340    14.2310 h2         1 UYP       0.117700
     59 H8          18.9180     6.6640    14.4820 h1         1 UYP       0.111700
     60 H9          16.5320     8.5510    14.6680 h1         1 UYP       0.042700
     61 H10         16.6100     6.8580    15.1080 h1         1 UYP       0.042700
     62 H11         14.7280     6.0290     9.0810 ha         1 UYP       0.126500
     63 H12         14.1000     4.1460     7.6520 ha         1 UYP       0.109000
     64 H13         14.7190     1.8220     8.2880 ha         1 UYP       0.110000
     65 H14         15.9950     1.4520    10.3800 ha         1 UYP       0.109000
     66 H15         16.6460     3.3210    11.8020 ha         1 UYP       0.126500
     67 H16         18.0980     8.2290    16.6270 h1         1 UYP       0.050700
     68 H17         18.1290    10.2600    15.3180 h1         1 UYP       0.056700
     69 H18         13.5430    10.2870    10.4400 h1         1 UYP       0.039700
     70 H19         14.1310     8.6650    10.0630 h1         1 UYP       0.039700
     71 H20         15.8410    11.1540    10.4760 h1         1 UYP       0.092700
     72 H21         18.5950     9.6590     9.4400 h2         1 UYP       0.114700
     73 H22         17.2240    10.2030     7.0790 h1         1 UYP       0.063700
     74 H23         15.1020     9.5160     8.0250 h1         1 UYP       0.039700
     75 H24         16.5580     8.0990     6.7030 h5         1 UYP       0.056800
     76 H25         20.1940     5.8390    11.4570 h5         1 UYP       0.055100
     77 H26         21.7410    14.4100     9.6870 hn         1 UYP       0.507500
     78 H27         20.0620    14.1420     9.9910 hn         1 UYP       0.507500
     79 H29         15.9930     8.0110    12.5800 hn         1 UYP       0.356500
     80 H30         15.7570     6.8280    10.8720 hn         1 UYP       0.157000
     81 H31         18.9850     2.7220     8.4860 hn         1 UYP       0.500500
     82 H32         18.0370     3.5080     7.2870 hn         1 UYP       0.500500
     83 H33         20.4840     8.3520    16.9770 ho         1 UYP       0.520000
     84 H34         19.4310    10.9330    16.9660 ho         1 UYP       0.512000
     85 H35         18.4600    11.7530     8.2200 ho         1 UYP       0.511000
     86 H36         13.9510    11.4140     8.1080 ho         1 UYP       0.505000
@<TRIPOS>BOND
     1     1     2 ar  
     2     1     6 ar  
     3     1    36 1   
     4     2     3 ar  
     5     2    35 1   
     6     3     5 ar  
     7     3    34 1   
     8     4    11 1   
     9     4    35 2   
    10     4    36 1   
    11     5     7 ar  
    12     6     7 ar  
    13     7    52 1   
    14     8    37 1   
    15     8    53 1   
    16     8    54 1   
    17     8    55 1   
    18     9    10 1   
    19     9    37 1   
    20     9    56 1   
    21     9    57 1   
    22    10    11 3   
    23    12    23 1   
    24    12    36 1   
    25    12    45 1   
    26    12    58 1   
    27    13    14 1   
    28    13    22 1   
    29    13    45 1   
    30    13    59 1   
    31    14    38 1   
    32    14    60 1   
    33    14    61 1   
    34    15    38 1   
    35    15    39 1   
    36    15    46 2   
    37    16    17 ar  
    38    16    21 ar  
    39    16    39 1   
    40    17    18 ar  
    41    17    62 1   
    42    18    19 ar  
    43    18    63 1   
    44    19    20 ar  
    45    19    64 1   
    46    20    21 ar  
    47    20    65 1   
    48    21    66 1   
    49    22    23 1   
    50    22    47 1   
    51    22    67 1   
    52    23    48 1   
    53    23    68 1   
    54    24    25 1   
    55    24    37 1   
    56    24    69 1   
    57    24    70 1   
    58    25    28 1   
    59    25    49 1   
    60    25    71 1   
    61    26    27 1   
    62    26    40 1   
    63    26    49 1   
    64    26    72 1   
    65    27    28 1   
    66    27    50 1   
    67    27    73 1   
    68    28    51 1   
    69    28    74 1   
    70    29    40 1   
    71    29    41 2   
    72    29    75 1   
    73    30    31 ar  
    74    30    33 ar  
    75    30    41 1   
    76    31    40 1   
    77    31    42 ar  
    78    32    42 ar  
    79    32    43 ar  
    80    32    76 1   
    81    33    43 ar  
    82    33    44 1   
    83    34    77 1   
    84    34    78 1   
    85    38    79 1   
    86    39    80 1   
    87    44    81 1   
    88    44    82 1   
    89    47    83 1   
    90    48    84 1   
    91    50    85 1   
    92    51    86 1   
@<TRIPOS>SUBSTRUCTURE
     1 UYP         1 TEMP              0 ****  ****    0 ROOT
