@<TRIPOS>MOLECULE
H26
   30    31     1     0     0
SMALL
abcg2


@<TRIPOS>ATOM
      1 OAD         21.4060    60.9160    13.6590 o          1 H26      -0.934833
      2 PAT         20.0320    61.3020    13.0980 p5         1 H26       1.298500
      3 OAE         20.1160    62.2630    11.9060 o          1 H26      -0.934833
      4 OAC         19.0490    61.7710    14.1780 o          1 H26      -0.934833
      5 CAJ         19.2850    59.7320    12.4350 c3         1 H26      -0.419400
      6 CAH         20.0590    59.1070    11.2910 c3         1 H26       0.184600
      7 OAN         19.5000    57.8570    10.8320 os         1 H26      -0.509000
      8 CAG         18.3490    57.9870    10.0180 c3         1 H26       0.156600
      9 CAI         18.6880    58.2850     8.5600 c3         1 H26       0.031600
     10 N9          19.4040    57.1840     7.9270 na         1 H26      -0.129500
     11 C8          20.7580    56.9680     7.9320 cc         1 H26       0.450400
     12 N7          21.1060    55.8580     7.3220 nd         1 H26      -0.640000
     13 C4          18.8500    56.1180     7.2720 cc         1 H26       0.059400
     14 C5          19.9170    55.3070     6.8980 cd         1 H26       0.131500
     15 N3          17.5330    55.9090     7.0320 nc         1 H26      -0.584100
     16 C2          17.3060    54.8130     6.3700 cd         1 H26       0.470800
     17 N1          18.2740    53.9540     5.9550 ns         1 H26      -0.439400
     18 C6          19.6570    54.1050     6.1670 c          1 H26       0.502500
     19 O6          20.4520    53.2700     5.7420 o          1 H26      -0.554000
     20 HAJ         19.2140    59.0160    13.2580 hc         1 H26       0.017700
     21 HAJA        18.2670    59.9680    12.1190 hc         1 H26       0.017700
     22 HAH         20.1340    59.8050    10.4550 h1         1 H26       0.041700
     23 HAHA        21.0710    58.8590    11.6050 h1         1 H26       0.041700
     24 HAG         17.8120    57.0410    10.0780 h1         1 H26       0.048700
     25 HAGA        17.6880    58.7750    10.3850 h1         1 H26       0.048700
     26 HAI         17.7720    58.4540     7.9990 h1         1 H26       0.071700
     27 HAIA        19.3050    59.1750     8.4760 h1         1 H26       0.071700
     28 H8          21.4310    57.6700     8.3950 h5         1 H26       0.085100
     29 H2          16.2940    54.5320     6.1150 h5         1 H26       0.035800
     30 HN1         17.9910    53.1270     5.4470 hn         1 H26       0.311500
@<TRIPOS>BOND
     1     1     2 1   
     2     2     3 1   
     3     2     4 1   
     4     2     5 1   
     5     5     6 1   
     6     5    20 1   
     7     5    21 1   
     8     6     7 1   
     9     6    22 1   
    10     6    23 1   
    11     7     8 1   
    12     8     9 1   
    13     8    24 1   
    14     8    25 1   
    15     9    10 1   
    16     9    26 1   
    17     9    27 1   
    18    10    11 1   
    19    10    13 1   
    20    11    12 2   
    21    11    28 1   
    22    12    14 1   
    23    13    14 2   
    24    13    15 1   
    25    14    18 1   
    26    15    16 2   
    27    16    17 1   
    28    16    29 1   
    29    17    18 1   
    30    17    30 1   
    31    18    19 2   
@<TRIPOS>SUBSTRUCTURE
     1 H26         1 TEMP              0 ****  ****    0 ROOT
