@<TRIPOS>MOLECULE
H4P
   36    35     1     0     0
SMALL
abcg2


@<TRIPOS>ATOM
      1 OA4         35.3520    55.4020    16.1130 oh         1 H4P      -0.674000
      2 CA4         35.9470    54.7790    17.2420 c3         1 H4P       0.139300
      3 CA5         37.1780    54.0200    16.7450 c3         1 H4P       0.264600
      4 OP4         38.2860    54.8500    16.5500 os         1 H4P      -0.630400
      5 PA          38.8640    55.3410    15.0090 p5         1 H4P       1.307900
      6 OP1         40.3740    55.2310    15.2030 o          1 H4P      -0.944833
      7 OP2         38.2790    54.3450    14.0100 o          1 H4P      -0.944833
      8 OP3         38.3640    56.7750    14.8520 o          1 H4P      -0.944833
      9 CA3         34.9190    53.8900    17.9660 c3         1 H4P       0.205300
     10 OA3         34.7940    52.6720    17.3030 oh         1 H4P      -0.795000
     11 CA2         35.1940    53.8090    19.4790 c3         1 H4P       0.150300
     12 OA2         36.5170    53.3820    19.7390 oh         1 H4P      -0.682000
     13 CA1         34.1540    52.9710    20.2290 c3         1 H4P       0.080300
     14 OA1         34.1320    53.4540    21.5690 oh         1 H4P      -0.785000
     15 C3          34.4440    51.4670    20.1980 c3         1 H4P       0.149800
     16 N           33.4080    50.5980    20.7210 n7         1 H4P      -0.835400
     17 C4          32.0860    50.6900    20.1120 c3         1 H4P      -0.154200
     18 P           31.9790    50.4760    18.2510 p5         1 H4P       1.317500
     19 O1P         32.8890    49.3070    17.8770 o          1 H4P      -0.904167
     20 O2P         32.4500    51.8330    17.6410 o          1 H4P      -0.904167
     21 O3P         30.4850    50.2520    18.0170 o          1 H4P      -0.904167
     22 HA4         34.6580    55.9880    16.4280 ho         1 H4P       0.432000
     23 H1          36.2900    55.5500    17.9500 h1         1 H4P      -0.004300
     24 HA51        37.4370    53.2620    17.4900 h1         1 H4P       0.026200
     25 HA52        36.9100    53.4830    15.8290 h1         1 H4P       0.026200
     26 HA3         33.9650    54.4510    17.9310 h1         1 H4P      -0.022300
     27 H2          33.8540    52.2970    17.4620 ho         1 H4P       0.609000
     28 HA2         35.0650    54.8460    19.8340 h1         1 H4P      -0.012300
     29 H3          36.6520    53.4020    20.6920 ho         1 H4P       0.453000
     30 HA1         33.1820    53.1530    19.7550 h1         1 H4P       0.086700
     31 H4          33.4990    52.9280    22.0670 ho         1 H4P       0.473000
     32 H31         34.6640    51.1620    19.1790 h1         1 H4P       0.070700
     33 H32         35.3510    51.2730    20.7780 h1         1 H4P       0.070700
     34 HN          33.3320    50.7040    21.7250 hn         1 H4P       0.311000
     35 H41         31.4850    49.8870    20.5520 h1         1 H4P      -0.015800
     36 H42         31.5550    51.6230    20.3650 h1         1 H4P      -0.015800
@<TRIPOS>BOND
     1     1     2 1   
     2     1    22 1   
     3     2     3 1   
     4     2     9 1   
     5     2    23 1   
     6     3     4 1   
     7     3    24 1   
     8     3    25 1   
     9     4     5 1   
    10     5     6 1   
    11     5     7 1   
    12     5     8 1   
    13     9    10 1   
    14     9    11 1   
    15     9    26 1   
    16    10    27 1   
    17    11    12 1   
    18    11    13 1   
    19    11    28 1   
    20    12    29 1   
    21    13    14 1   
    22    13    15 1   
    23    13    30 1   
    24    14    31 1   
    25    15    16 1   
    26    15    32 1   
    27    15    33 1   
    28    16    17 1   
    29    16    34 1   
    30    17    18 1   
    31    17    35 1   
    32    17    36 1   
    33    18    19 1   
    34    18    20 1   
    35    18    21 1   
@<TRIPOS>SUBSTRUCTURE
     1 H4P         1 TEMP              0 ****  ****    0 ROOT
