@<TRIPOS>MOLECULE
HAL
   60    61     1     0     0
SMALL
abcg2


@<TRIPOS>ATOM
      1 CP1         61.7900     3.6280    33.7260 ca         1 HAL      -0.055300
      2 CP2         62.9000     3.3440    32.9330 ca         1 HAL      -0.106500
      3 CP3         63.5930     4.3590    32.2880 ca         1 HAL      -0.117500
      4 CP4         63.1840     5.6790    32.4260 ca         1 HAL      -0.130000
      5 CP5         62.0790     5.9750    33.2130 ca         1 HAL      -0.117500
      6 CP6         61.3880     4.9560    33.8560 ca         1 HAL      -0.106500
      7 C1          61.0190     2.5240    34.3920 c3         1 HAL      -0.061100
      8 C2          59.8870     2.0260    33.4970 c3         1 HAL       0.116000
      9 N1          59.1770     0.9470    34.1470 ns         1 HAL      -0.504900
     10 C3          57.9870     0.5220    33.7120 c          1 HAL       0.565100
     11 O1          57.3870     1.0230    32.7680 o          1 HAL      -0.678100
     12 C4          57.3650    -0.6680    34.4350 c3         1 HAL       0.145600
     13 O2          57.8410    -0.9030    35.7370 os         1 HAL      -0.588400
     14 P           59.1580    -1.8770    35.9990 p5         1 HAL       1.392400
     15 O3          60.4030    -1.0330    35.8130 o          1 HAL      -0.822500
     16 O4          59.0010    -3.1570    35.2350 o          1 HAL      -0.822500
     17 C5          58.9110    -2.1450    37.8060 c3         1 HAL      -0.221300
     18 C6          59.9270    -3.1710    38.3330 c3         1 HAL      -0.030100
     19 CR1         59.6850    -3.5100    39.7750 ca         1 HAL      -0.057300
     20 CR2         58.7470    -4.4820    40.1210 ca         1 HAL      -0.109000
     21 CR3         58.4780    -4.7740    41.4500 ca         1 HAL      -0.107500
     22 CR4         59.1420    -4.0900    42.4620 ca         1 HAL      -0.121000
     23 CR5         60.0780    -3.1210    42.1300 ca         1 HAL      -0.107500
     24 CR6         60.3480    -2.8370    40.7970 ca         1 HAL      -0.109000
     25 N2          59.0160    -0.8850    38.5000 ns         1 HAL      -0.477900
     26 C7          58.0560    -0.3490    39.2760 c          1 HAL       0.610100
     27 O5          57.0100    -0.9270    39.5420 o          1 HAL      -0.630100
     28 C8          58.3430     1.0530    39.7750 c3         1 HAL      -0.157400
     29 C9          58.0550     1.2400    41.2630 c3         1 HAL      -0.039400
     30 C10         58.9920     0.4330    42.1450 c3         1 HAL      -0.210400
     31 C11         58.8260     0.6090    43.6680 c          1 HAL       0.721000
     32 O6          59.5590    -0.1130    44.3790 o          1 HAL      -0.755500
     33 O7          57.9930     1.4440    44.0720 o          1 HAL      -0.755500
     34 HP2         63.2270     2.3160    32.8240 ha         1 HAL       0.117500
     35 HP3         64.4550     4.1190    31.6780 ha         1 HAL       0.099500
     36 HP4         63.7260     6.4720    31.9260 ha         1 HAL       0.095000
     37 HP5         61.7550     7.0020    33.3310 ha         1 HAL       0.099500
     38 HP6         60.5290     5.1950    34.4710 ha         1 HAL       0.117500
     39 HC11        60.6000     2.8730    35.3390 hc         1 HAL       0.071700
     40 HC12        61.6900     1.6930    34.6260 hc         1 HAL       0.071700
     41 HC21        60.2970     1.7050    32.5330 h1         1 HAL       0.031700
     42 HC22        59.1960     2.8450    33.2890 h1         1 HAL       0.031700
     43 HN1         59.6950     0.3770    34.8200 hn         1 HAL       0.383500
     44 HC41        57.4880    -1.5470    33.7890 h1         1 HAL       0.053200
     45 HC42        56.2920    -0.4750    34.4970 h1         1 HAL       0.053200
     46 HC5         57.9040    -2.5340    37.9650 h1         1 HAL       0.092700
     47 HC61        60.9390    -2.7790    38.1990 hc         1 HAL       0.047200
     48 HC62        59.8540    -4.0740    37.7220 hc         1 HAL       0.047200
     49 HR2         58.2220    -5.0180    39.3380 ha         1 HAL       0.103500
     50 HR3         57.7490    -5.5350    41.6980 ha         1 HAL       0.110000
     51 HR4         58.9290    -4.3110    43.5000 ha         1 HAL       0.100000
     52 HR5         60.5830    -2.5660    42.9110 ha         1 HAL       0.110000
     53 HR6         61.0810    -2.0790    40.5500 ha         1 HAL       0.103500
     54 HN2         59.8430    -0.3370    38.3160 hn         1 HAL       0.312500
     55 HC81        57.7090     1.7280    39.1920 hc         1 HAL       0.033700
     56 HC82        59.3750     1.3420    39.5600 hc         1 HAL       0.033700
     57 HC91        57.0160     0.9750    41.4680 hc         1 HAL       0.041700
     58 HC92        58.1460     2.3030    41.4950 hc         1 HAL       0.041700
     59 H101        60.0310     0.6720    41.8870 hc         1 HAL       0.023200
     60 H102        58.8890    -0.6330    41.9190 hc         1 HAL       0.023200
@<TRIPOS>BOND
     1     1     2 ar  
     2     1     6 ar  
     3     1     7 1   
     4     2     3 ar  
     5     2    34 1   
     6     3     4 ar  
     7     3    35 1   
     8     4     5 ar  
     9     4    36 1   
    10     5     6 ar  
    11     5    37 1   
    12     6    38 1   
    13     7     8 1   
    14     7    39 1   
    15     7    40 1   
    16     8     9 1   
    17     8    41 1   
    18     8    42 1   
    19     9    10 1   
    20     9    43 1   
    21    10    11 2   
    22    10    12 1   
    23    12    13 1   
    24    12    44 1   
    25    12    45 1   
    26    13    14 1   
    27    14    15 1   
    28    14    16 1   
    29    14    17 1   
    30    17    18 1   
    31    17    25 1   
    32    17    46 1   
    33    18    19 1   
    34    18    47 1   
    35    18    48 1   
    36    19    20 ar  
    37    19    24 ar  
    38    20    21 ar  
    39    20    49 1   
    40    21    22 ar  
    41    21    50 1   
    42    22    23 ar  
    43    22    51 1   
    44    23    24 ar  
    45    23    52 1   
    46    24    53 1   
    47    25    26 1   
    48    25    54 1   
    49    26    27 2   
    50    26    28 1   
    51    28    29 1   
    52    28    55 1   
    53    28    56 1   
    54    29    30 1   
    55    29    57 1   
    56    29    58 1   
    57    30    31 1   
    58    30    59 1   
    59    30    60 1   
    60    31    32 1   
    61    31    33 1   
@<TRIPOS>SUBSTRUCTURE
     1 HAL         1 TEMP              0 ****  ****    0 ROOT
