@<TRIPOS>MOLECULE
HEN
   40    40     1     0     0
SMALL
abcg2


@<TRIPOS>ATOM
      1 N1          25.8560   170.0780    27.0050 nb         1 HEN      -0.735000
      2 C2          25.8170   171.0810    26.1430 ca         1 HEN       0.197300
      3 C2A         25.7620   170.7570    24.6800 c3         1 HEN      -0.088400
      4 C3          25.8160   172.4220    26.5670 ca         1 HEN       0.145100
      5 O3          25.7790   173.3750    25.6260 oh         1 HEN      -0.630100
      6 C4          25.8470   172.7080    27.9360 ca         1 HEN      -0.083300
      7 C4A         25.7910   174.1190    28.4640 c3         1 HEN       0.142100
      8 C5          25.8960   171.6310    28.8290 ca         1 HEN      -0.062300
      9 C6          25.8990   170.3490    28.3050 ca         1 HEN       0.233900
     10 C5A         25.9220   171.8320    30.3200 c3         1 HEN       0.290900
     11 OP4         24.7230   172.4060    30.7450 os         1 HEN      -0.569400
     12 P           24.7130   173.2000    32.2730 p5         1 HEN       1.255900
     13 OP1         23.2250   173.4770    32.4280 o          1 HEN      -0.917833
     14 OP2         25.5860   174.4430    32.0840 o          1 HEN      -0.917833
     15 OP3         25.2960   172.1730    33.2400 o          1 HEN      -0.917833
     16 N4A         26.1530   175.0950    27.4580 n2         1 HEN      -0.789900
     17 CAI         26.3030   176.3300    27.7700 ce         1 HEN       0.518600
     18 CBC         26.6950   177.2550    26.6160 c          1 HEN       0.643700
     19 O2B         25.8830   177.3270    25.6790 o          1 HEN      -0.758000
     20 O3B         27.7980   177.8190    26.7310 o          1 HEN      -0.758000
     21 CBI         26.1120   176.8500    29.1120 ce         1 HEN      -0.474600
     22 CGI         26.3240   178.1240    29.4980 c2         1 HEN       0.002800
     23 CEI         26.0110   178.6480    30.8290 c3         1 HEN      -0.388200
     24 PG          24.5730   179.9190    30.7830 p5         1 HEN       1.317500
     25 OG1         25.1510   181.0790    29.9680 o          1 HEN      -0.941167
     26 OG2         24.3550   180.2320    32.2650 o          1 HEN      -0.941167
     27 OG3         23.4130   179.1820    30.1090 o          1 HEN      -0.941167
     28 H2A1        24.8600   171.1540    24.2090 hc         1 HEN       0.003367
     29 H2A2        26.6110   171.1800    24.1390 hc         1 HEN       0.003367
     30 H2A3        25.7710   169.6780    24.5390 hc         1 HEN       0.003367
     31 HO3         25.9480   174.2470    26.1090 ho         1 HEN       0.567000
     32 H4A1        24.7760   174.3090    28.8330 h1         1 HEN       0.100200
     33 H4A2        26.4300   174.1900    29.3490 h1         1 HEN       0.100200
     34 HC6         25.9330   169.4950    28.9740 h4         1 HEN      -0.024900
     35 H5A1        26.0990   170.8560    30.7960 h1         1 HEN      -0.012300
     36 H5A2        26.7930   172.4520    30.5820 h1         1 HEN      -0.012300
     37 HBIC        25.7500   176.1590    29.8680 ha         1 HEN       0.219000
     38 HGIC        26.7150   178.8360    28.7780 ha         1 HEN       0.150000
     39 HCE1        25.7680   177.8340    31.5180 hc         1 HEN       0.034700
     40 HCEC        26.8680   179.1950    31.2350 hc         1 HEN       0.034700
@<TRIPOS>BOND
     1     1     2 ar  
     2     1     9 ar  
     3     2     3 1   
     4     2     4 ar  
     5     3    28 1   
     6     3    29 1   
     7     3    30 1   
     8     4     5 1   
     9     4     6 ar  
    10     5    31 1   
    11     6     7 1   
    12     6     8 ar  
    13     7    16 1   
    14     7    32 1   
    15     7    33 1   
    16     8     9 ar  
    17     8    10 1   
    18     9    34 1   
    19    10    11 1   
    20    10    35 1   
    21    10    36 1   
    22    11    12 1   
    23    12    13 1   
    24    12    14 1   
    25    12    15 1   
    26    16    17 2   
    27    17    18 1   
    28    17    21 1   
    29    18    19 1   
    30    18    20 1   
    31    21    22 2   
    32    21    37 1   
    33    22    23 1   
    34    22    38 1   
    35    23    24 1   
    36    23    39 1   
    37    23    40 1   
    38    24    25 1   
    39    24    26 1   
    40    24    27 1   
@<TRIPOS>SUBSTRUCTURE
     1 HEN         1 TEMP              0 ****  ****    0 ROOT
