@<TRIPOS>MOLECULE
HTI
   27    26     1     0     0
SMALL
abcg2


@<TRIPOS>ATOM
      1 N           -2.9600     2.1440    -0.4220 n8         1 HTI      -1.011200
      2 CA          -1.8550     1.2290    -0.6420 c3         1 HTI       0.029500
      3 CB          -0.6010     1.5450     0.1790 c3         1 HTI       0.069600
      4 S           -0.9710     1.4810     1.9600 ss         1 HTI      -0.535000
      5 CAH          0.6760     1.1010     2.6700 c3         1 HTI       0.337300
      6 OAI          1.1330    -0.1580     2.2570 oh         1 HTI      -0.669000
      7 CAJ          1.7510     2.1110     2.3060 c3         1 HTI      -0.038400
      8 CAK          1.4980     3.5740     2.6880 c3         1 HTI       0.019500
      9 NAL          2.4310     4.3970     1.9260 n8         1 HTI      -0.998200
     10 CAM          1.6450     3.8200     4.2090 c          1 HTI       0.720000
     11 OAN          0.9260     3.1130     4.9470 o          1 HTI      -0.740500
     12 OAO          2.4390     4.7040     4.5790 o          1 HTI      -0.740500
     13 C           -2.2740    -0.2450    -0.4010 c          1 HTI       0.730000
     14 O           -3.3690    -0.4500     0.1560 o          1 HTI      -0.736500
     15 OXT         -1.4520    -1.1010    -0.7820 o          1 HTI      -0.736500
     16 H           -2.6210     3.0730    -0.2030 hn         1 HTI       0.388500
     17 H2          -3.4980     1.8200     0.3710 hn         1 HTI       0.388500
     18 HA          -1.5400     1.3040    -1.6910 h1         1 HTI       0.033700
     19 HB2         -0.2180     2.5360    -0.0750 h1         1 HTI       0.049200
     20 HB3          0.1790     0.8160    -0.0420 h1         1 HTI       0.049200
     21 HAH          0.4870     1.1370     3.7450 h2         1 HTI       0.097700
     22 HAI          0.4760    -0.8150     2.5110 ho         1 HTI       0.451000
     23 HAJ1         1.9110     2.0620     1.2240 hc         1 HTI       0.033700
     24 HAJ2         2.6890     1.7790     2.7640 hc         1 HTI       0.033700
     25 HAK          0.4500     3.8050     2.4410 h1         1 HTI       0.026700
     26 HAL1         2.4510     5.3250     2.3250 hn         1 HTI       0.373500
     27 HAL2         2.0920     4.4940     0.9770 hn         1 HTI       0.373500
@<TRIPOS>BOND
     1     1     2 1   
     2     1    16 1   
     3     1    17 1   
     4     2     3 1   
     5     2    13 1   
     6     2    18 1   
     7     3     4 1   
     8     3    19 1   
     9     3    20 1   
    10     4     5 1   
    11     5     6 1   
    12     5     7 1   
    13     5    21 1   
    14     6    22 1   
    15     7     8 1   
    16     7    23 1   
    17     7    24 1   
    18     8     9 1   
    19     8    10 1   
    20     8    25 1   
    21     9    26 1   
    22     9    27 1   
    23    10    11 1   
    24    10    12 1   
    25    13    14 1   
    26    13    15 1   
@<TRIPOS>SUBSTRUCTURE
     1 HTI         1 TEMP              0 ****  ****    0 ROOT
