@<TRIPOS>MOLECULE
HZ7
   95    95     1     0     0
SMALL
abcg2


@<TRIPOS>ATOM
      1 C2         205.3700   160.7900   177.8390 c6         1 HZ7       0.134300
      2 C3         206.4460   160.3680   178.8640 c6         1 HZ7       0.255800
      3 C4         206.1190   160.6510   180.3450 c6         1 HZ7       0.148800
      4 C5         204.6340   160.8710   180.6340 c6         1 HZ7       0.162300
      5 C6         203.7030   160.1110   179.6850 c6         1 HZ7       0.148800
      6 C1         203.8920   160.7840   178.3270 c6         1 HZ7       0.255800
      7 C10        209.9000   159.6300   183.0980 c3         1 HZ7       0.361300
      8 C11        209.9220   161.1120   182.7570 c3         1 HZ7      -0.089400
      9 C12        207.9040   159.5600   187.6620 c3         1 HZ7       0.410300
     10 C13        209.4190   159.3960   187.7140 c3         1 HZ7      -0.154400
     11 C14        211.2680   161.5580   182.1980 c3         1 HZ7      -0.061400
     12 C15        211.3020   163.0170   181.7480 c3         1 HZ7      -0.054400
     13 C16        210.3010   163.4040   180.6600 c3         1 HZ7      -0.072400
     14 C17        210.3890   162.5520   179.3970 c3         1 HZ7      -0.075400
     15 C18        209.5110   163.0490   178.2500 c3         1 HZ7      -0.097400
     16 C19        209.9730   164.3640   177.6360 c3         1 HZ7      -0.071100
     17 C20        210.0720   160.2580   188.7910 c3         1 HZ7      -0.069400
     18 C21        211.5630   159.9780   188.9610 c3         1 HZ7      -0.064400
     19 C22        212.3720   160.1490   187.6790 c3         1 HZ7      -0.087400
     20 C23        213.8780   160.0960   187.9080 c3         1 HZ7      -0.066400
     21 C24        214.6890   159.9850   186.6200 c3         1 HZ7      -0.069400
     22 C25        214.4480   161.1250   185.6380 c3         1 HZ7      -0.096100
     23 C7         206.5930   160.1690   184.1400 c3         1 HZ7       0.236600
     24 C8         207.9490   159.6120   184.5370 c3         1 HZ7       0.139300
     25 C9         207.8650   158.4320   185.5120 c3         1 HZ7       0.140600
     26 O1         203.9250   158.7360   179.5940 oh         1 HZ7      -0.667500
     27 O10        201.2510   161.2180   175.8410 o          1 HZ7      -0.942167
     28 O11        203.5800   162.2840   175.9300 o          1 HZ7      -0.942167
     29 O12        203.2760   159.9620   174.8710 o          1 HZ7      -0.942167
     30 O13        208.8830   159.3900   177.2820 o          1 HZ7      -0.942167
     31 O14        208.3150   157.0970   178.3100 o          1 HZ7      -0.942167
     32 O15        209.0850   159.0320   179.8150 o          1 HZ7      -0.942167
     33 O16        207.2570   158.7210   186.7550 os         1 HZ7      -0.440000
     34 O17        208.6130   159.1370   183.3790 os         1 HZ7      -0.391000
     35 O18        210.7960   159.4070   184.1500 oh         1 HZ7      -0.744000
     36 O19        207.5310   160.8850   187.3540 oh         1 HZ7      -0.653000
     37 O2         203.0060   160.2320   177.3950 os         1 HZ7      -0.580400
     38 O3         204.3250   160.7570   182.0260 os         1 HZ7      -0.674400
     39 O4         206.7660   159.0150   178.6880 os         1 HZ7      -0.580400
     40 O5         205.6990   162.0680   177.3420 oh         1 HZ7      -0.798000
     41 O6         206.8530   161.8070   180.7360 oh         1 HZ7      -0.667500
     42 O7         203.9870   158.1970   182.1490 o          1 HZ7      -0.838500
     43 O8         205.8980   159.2140   183.3660 os         1 HZ7      -0.570400
     44 O9         203.5300   159.7830   184.1790 o          1 HZ7      -0.838500
     45 P1         204.3220   159.4190   182.9680 p5         1 HZ7       1.428800
     46 P2         202.7510   160.9770   175.8740 p5         1 HZ7       1.310400
     47 P3         208.4120   158.6030   178.5060 p5         1 HZ7       1.310400
     48 H1         205.4360   160.0360   177.0400 h1         1 HZ7       0.078700
     49 H2         207.3150   160.9960   178.6290 h1         1 HZ7       0.000200
     50 H3         206.4710   159.7800   180.9050 h1         1 HZ7       0.024700
     51 H4         204.4370   161.9290   180.4300 h1         1 HZ7       0.030700
     52 H5         202.6710   160.3250   180.0170 h1         1 HZ7       0.024700
     53 H6         203.6400   161.8410   178.5090 h1         1 HZ7       0.000200
     54 H7         210.1920   159.0670   182.2050 h2         1 HZ7       0.154700
     55 H8         209.6640   161.7150   183.6350 hc         1 HZ7       0.071200
     56 H9         209.1380   161.2830   182.0170 hc         1 HZ7       0.071200
     57 H10        207.4920   159.2860   188.6440 h2         1 HZ7       0.005700
     58 H11        209.6480   158.3420   187.9100 hc         1 HZ7       0.070200
     59 H12        209.8590   159.6400   186.7450 hc         1 HZ7       0.070200
     60 H13        211.5410   160.9090   181.3600 hc         1 HZ7       0.029200
     61 H14        212.0460   161.4120   182.9520 hc         1 HZ7       0.029200
     62 H15        212.3120   163.2400   181.3890 hc         1 HZ7      -0.014800
     63 H16        211.1440   163.6620   182.6190 hc         1 HZ7      -0.014800
     64 H17        210.4690   164.4560   180.4130 hc         1 HZ7       0.026200
     65 H18        209.2800   163.3530   181.0480 hc         1 HZ7       0.026200
     66 H19        210.0990   161.5240   179.6270 hc         1 HZ7       0.063200
     67 H20        211.4310   162.5070   179.0570 hc         1 HZ7       0.063200
     68 H21        208.4800   163.1490   178.6050 hc         1 HZ7       0.111700
     69 H22        209.4820   162.2780   177.4760 hc         1 HZ7       0.111700
     70 H23        209.3400   164.6540   176.7960 hc         1 HZ7      -0.008967
     71 H24        209.9500   165.1830   178.3560 hc         1 HZ7      -0.008967
     72 H25        210.9960   164.2830   177.2640 hc         1 HZ7      -0.008967
     73 H26        209.9440   161.3160   188.5430 hc         1 HZ7       0.024700
     74 H27        209.5660   160.1000   189.7490 hc         1 HZ7       0.024700
     75 H28        211.7060   158.9620   189.3450 hc         1 HZ7       0.012200
     76 H29        211.9580   160.6500   189.7290 hc         1 HZ7       0.012200
     77 H30        212.1000   161.0990   187.2090 hc         1 HZ7       0.068200
     78 H31        212.0990   159.3690   186.9610 hc         1 HZ7       0.068200
     79 H32        214.1150   159.2400   188.5490 hc         1 HZ7       0.012700
     80 H33        214.1940   160.9860   188.4640 hc         1 HZ7       0.012700
     81 H34        214.4560   159.0330   186.1330 hc         1 HZ7       0.026200
     82 H35        215.7520   159.9440   186.8710 hc         1 HZ7       0.026200
     83 H36        215.1170   161.0540   184.7790 hc         1 HZ7       0.041033
     84 H37        213.4270   161.1210   185.2520 hc         1 HZ7       0.041033
     85 H38        214.6190   162.0960   186.1090 hc         1 HZ7       0.041033
     86 H39        206.7480   161.0920   183.5700 h1         1 HZ7       0.016200
     87 H40        206.0350   160.4440   185.0390 h1         1 HZ7       0.016200
     88 H41        208.4990   160.4310   185.0100 h1         1 HZ7       0.013700
     89 H42        207.2560   157.6410   185.0690 h1         1 HZ7       0.053200
     90 H43        208.8700   158.0200   185.6470 h1         1 HZ7       0.053200
     91 H44        203.9500   158.3950   180.5180 ho         1 HZ7       0.428000
     92 H49        210.9750   158.4630   184.2170 ho         1 HZ7       0.420000
     93 H50        207.6430   161.4340   188.1370 ho         1 HZ7       0.416000
     94 H51        204.9280   162.2760   176.7300 ho         1 HZ7       0.520000
     95 H52        206.6600   162.0000   181.6590 ho         1 HZ7       0.428000
@<TRIPOS>BOND
     1     1     2 1   
     2     1     6 1   
     3     1    40 1   
     4     1    48 1   
     5     2     3 1   
     6     2    39 1   
     7     2    49 1   
     8     3     4 1   
     9     3    41 1   
    10     3    50 1   
    11     4     5 1   
    12     4    38 1   
    13     4    51 1   
    14     5     6 1   
    15     5    26 1   
    16     5    52 1   
    17     6    37 1   
    18     6    53 1   
    19     7     8 1   
    20     7    34 1   
    21     7    35 1   
    22     7    54 1   
    23     8    11 1   
    24     8    55 1   
    25     8    56 1   
    26     9    10 1   
    27     9    33 1   
    28     9    36 1   
    29     9    57 1   
    30    10    17 1   
    31    10    58 1   
    32    10    59 1   
    33    11    12 1   
    34    11    60 1   
    35    11    61 1   
    36    12    13 1   
    37    12    62 1   
    38    12    63 1   
    39    13    14 1   
    40    13    64 1   
    41    13    65 1   
    42    14    15 1   
    43    14    66 1   
    44    14    67 1   
    45    15    16 1   
    46    15    68 1   
    47    15    69 1   
    48    16    70 1   
    49    16    71 1   
    50    16    72 1   
    51    17    18 1   
    52    17    73 1   
    53    17    74 1   
    54    18    19 1   
    55    18    75 1   
    56    18    76 1   
    57    19    20 1   
    58    19    77 1   
    59    19    78 1   
    60    20    21 1   
    61    20    79 1   
    62    20    80 1   
    63    21    22 1   
    64    21    81 1   
    65    21    82 1   
    66    22    83 1   
    67    22    84 1   
    68    22    85 1   
    69    23    24 1   
    70    23    43 1   
    71    23    86 1   
    72    23    87 1   
    73    24    25 1   
    74    24    34 1   
    75    24    88 1   
    76    25    33 1   
    77    25    89 1   
    78    25    90 1   
    79    26    91 1   
    80    27    46 1   
    81    28    46 1   
    82    29    46 1   
    83    30    47 1   
    84    31    47 1   
    85    32    47 1   
    86    35    92 1   
    87    36    93 1   
    88    37    46 1   
    89    38    45 1   
    90    39    47 1   
    91    40    94 1   
    92    41    95 1   
    93    42    45 1   
    94    43    45 1   
    95    44    45 1   
@<TRIPOS>SUBSTRUCTURE
     1 HZ7         1 TEMP              0 ****  ****    0 ROOT
