@<TRIPOS>MOLECULE
O7E
   41    42     1     0     0
SMALL
abcg2


@<TRIPOS>ATOM
      1 O3P         19.1690    33.8040    36.7000 o          1 O7E      -0.919833
      2 P           19.2350    34.4210    38.0940 p5         1 O7E       1.266900
      3 O1P         17.9280    34.3370    38.8800 o          1 O7E      -0.919833
      4 O2P         20.4970    34.1110    38.8850 o          1 O7E      -0.919833
      5 O5          19.4470    36.1060    37.7950 os         1 O7E      -0.583400
      6 C5          18.3830    36.7730    37.1930 c3         1 O7E       0.239600
      7 C4          18.9360    37.9600    36.4170 c5         1 O7E       0.146300
      8 O4          17.8800    38.5790    35.6590 os         1 O7E      -0.447000
      9 C3          19.5260    39.0620    37.2910 c5         1 O7E       0.124300
     10 O3          20.5700    39.6900    36.5880 oh         1 O7E      -0.717000
     11 C2          18.3310    40.0090    37.4580 c5         1 O7E       0.062300
     12 O2          18.6760    41.3440    37.7040 oh         1 O7E      -0.746000
     13 C1          17.7140    39.8960    36.0650 c5         1 O7E       0.345700
     14 N1          16.3170    40.3010    35.9240 n          1 O7E      -0.291000
     15 C12         15.3430    39.6750    36.6960 c          1 O7E       0.607000
     16 O8          15.5920    38.8100    37.5010 o          1 O7E      -0.479000
     17 N3          14.0620    40.1140    36.4890 ns         1 O7E      -0.474500
     18 C11         13.6170    41.0670    35.5910 c          1 O7E       0.599200
     19 O6          12.4400    41.3540    35.5100 o          1 O7E      -0.565000
     20 C10         14.6800    41.6380    34.8000 cc         1 O7E      -0.403200
     21 C6          15.9480    41.2400    34.9900 cd         1 O7E       0.042400
     22 C7          17.0020    41.7790    34.0510 c          1 O7E       0.617300
     23 O71         17.2560    41.1830    33.0410 o          1 O7E      -0.400000
     24 O72         17.5850    42.9190    34.3380 os         1 O7E      -0.443100
     25 C8          17.2960    43.6790    35.5310 c3         1 O7E       0.181600
     26 C9          16.3690    44.8280    35.2190 c3         1 O7E      -0.120100
     27 H3          17.6440    37.1200    37.9260 h1         1 O7E       0.017700
     28 H4          17.8390    36.1370    36.4790 h1         1 O7E       0.017700
     29 H5          19.6920    37.5930    35.7150 h1         1 O7E       0.100700
     30 H6          19.8700    38.6700    38.2550 h1         1 O7E       0.104700
     31 H7          20.7390    40.5430    37.0060 ho         1 O7E       0.485000
     32 H8          17.6650    39.6120    38.2250 h1         1 O7E       0.093700
     33 H9          18.6690    41.5020    38.6520 ho         1 O7E       0.505000
     34 H10         18.2910    40.5720    35.4250 h2         1 O7E       0.052700
     35 H11         13.3600    39.6630    37.0650 hn         1 O7E       0.338500
     36 H12         14.4340    42.3720    34.0460 ha         1 O7E       0.210000
     37 H13         16.8890    43.0400    36.3140 h1         1 O7E       0.067700
     38 H14         18.2640    44.0380    35.8740 h1         1 O7E       0.067700
     39 H15         16.2460    45.4340    36.1160 hc         1 O7E       0.044700
     40 H16         16.7750    45.4660    34.4350 hc         1 O7E       0.044700
     41 H17         15.3820    44.4830    34.9120 hc         1 O7E       0.044700
@<TRIPOS>BOND
     1     1     2 1   
     2     2     3 1   
     3     2     4 1   
     4     2     5 1   
     5     5     6 1   
     6     6     7 1   
     7     6    27 1   
     8     6    28 1   
     9     7     8 1   
    10     7     9 1   
    11     7    29 1   
    12     8    13 1   
    13     9    10 1   
    14     9    11 1   
    15     9    30 1   
    16    10    31 1   
    17    11    12 1   
    18    11    13 1   
    19    11    32 1   
    20    12    33 1   
    21    13    14 1   
    22    13    34 1   
    23    14    15 1   
    24    14    21 1   
    25    15    16 2   
    26    15    17 1   
    27    17    18 1   
    28    17    35 1   
    29    18    19 2   
    30    18    20 1   
    31    20    21 2   
    32    20    36 1   
    33    21    22 1   
    34    22    23 2   
    35    22    24 1   
    36    24    25 1   
    37    25    26 1   
    38    25    37 1   
    39    25    38 1   
    40    26    39 1   
    41    26    40 1   
    42    26    41 1   
@<TRIPOS>SUBSTRUCTURE
     1 O7E         1 TEMP              0 ****  ****    0 ROOT
