@<TRIPOS>MOLECULE
OBC
   51    55     1     0     0
SMALL
abcg2


@<TRIPOS>ATOM
      1 O01         -4.1490    -5.4400    15.7260 o          1 OBC      -0.511000
      2 O02         -5.3710    -7.4020    16.6960 o          1 OBC      -0.511000
      3 O03         -6.5890    -5.2880    16.1270 os         1 OBC      -0.441800
      4 S01         -5.1700    -5.9730    16.5980 s6         1 OBC       1.310700
      5 C01         -4.7500    -4.0150    23.2480 ca         1 OBC      -0.055000
      6 C02         -4.0850    -3.5300    24.3600 ca         1 OBC      -0.178500
      7 C03         -2.6940    -3.6060    24.4340 ca         1 OBC       0.148100
      8 C04         -1.9880    -4.1810    23.3810 ca         1 OBC      -0.178500
      9 C05         -2.6660    -4.6680    22.2770 ca         1 OBC      -0.055000
     10 C06         -8.2170    -3.9040    20.4410 ca         1 OBC      -0.054500
     11 C07         -9.1120    -2.8610    20.6000 ca         1 OBC      -0.179500
     12 C08         -8.6460    -1.5860    20.9140 ca         1 OBC       0.150100
     13 C09         -7.2740    -1.3760    21.0560 ca         1 OBC      -0.179500
     14 C10         -6.3920    -2.4290    20.8980 ca         1 OBC      -0.054500
     15 C11         -8.8220    -6.0980    16.3370 ca         1 OBC      -0.090000
     16 C12         -9.8850    -6.8270    15.8220 ca         1 OBC      -0.108000
     17 C13         -9.7320    -7.5450    14.6440 ca         1 OBC      -0.084000
     18 C14         -8.5190    -7.5340    13.9680 ca         1 OBC      -0.127000
     19 C15         -7.4750    -6.7970    14.4850 ca         1 OBC       0.156000
     20 C16         -7.6140    -6.0770    15.6620 ca         1 OBC       0.097100
     21 C17         -6.8410    -3.7170    20.6010 ca         1 OBC      -0.080800
     22 C18         -4.0590    -4.5890    22.1780 ca         1 OBC      -0.076800
     23 O06         -5.3290    -6.9350    19.7220 os         1 OBC      -0.402000
     24 C19         -4.1680    -6.2580    20.1660 c5         1 OBC       0.179500
     25 C20         -4.7500    -5.1440    21.0220 ce         1 OBC      -0.066400
     26 C21         -3.6620    -5.6160    18.8500 c5         1 OBC      -0.077400
     27 C22         -5.0120    -5.2230    18.2110 c5         1 OBC      -0.346700
     28 C23         -6.0130    -5.8000    19.2560 c5         1 OBC       0.218500
     29 C24         -5.9120    -4.8280    20.4230 cf         1 OBC      -0.076400
     30 H1          -9.1210     0.2310    21.2710 ho         1 OBC       0.468000
     31 H2          -2.5840    -2.7860    26.1560 ho         1 OBC       0.467000
     32 H4          -4.6520    -3.1000    25.1780 ha         1 OBC       0.123500
     33 H5          -0.9080    -4.2510    23.4300 ha         1 OBC       0.123500
     34 H6          -2.0870    -5.1110    21.4760 ha         1 OBC       0.118500
     35 H7          -8.6050    -4.8870    20.2020 ha         1 OBC       0.118500
     36 H8         -10.1740    -3.0310    20.4810 ha         1 OBC       0.124000
     37 H9          -6.8940    -0.3850    21.2820 ha         1 OBC       0.124000
     38 H10         -5.3300    -2.2440    21.0010 ha         1 OBC       0.118500
     39 H11         -8.9290    -5.5300    17.2530 ha         1 OBC       0.128000
     40 H12        -10.8300    -6.8350    16.3470 ha         1 OBC       0.124000
     41 H13        -10.5580    -8.1170    14.2440 ha         1 OBC       0.124000
     42 H14         -8.3840    -8.0870    13.0480 ha         1 OBC       0.139000
     43 H15         -3.4660    -6.9380    20.6470 h1         1 OBC       0.108700
     44 H17         -3.1030    -6.3480    18.2650 hc         1 OBC       0.070700
     45 H18         -3.0160    -4.7540    19.0020 hc         1 OBC       0.070700
     46 H19         -5.1270    -4.1500    18.0490 h1         1 OBC       0.124700
     47 H20         -7.0110    -6.0380    18.8930 h1         1 OBC       0.106700
     48 H3          -5.8300    -3.9610    23.2250 ha         1 OBC       0.118500
     49 O04         -9.5530    -0.6050    21.0590 oh         1 OBC      -0.530100
     50 O05         -1.9930    -3.1530    25.4890 oh         1 OBC      -0.530100
     51 F01         -6.2990    -6.7630    13.8490 f          1 OBC      -0.163000
@<TRIPOS>BOND
     1     1     4 2   
     2     2     4 2   
     3     3     4 1   
     4     3    20 1   
     5     4    27 1   
     6     5     6 ar  
     7     5    22 ar  
     8     5    48 1   
     9     6     7 ar  
    10     6    32 1   
    11     7     8 ar  
    12     7    50 1   
    13     8     9 ar  
    14     8    33 1   
    15     9    22 ar  
    16     9    34 1   
    17    10    11 ar  
    18    10    21 ar  
    19    10    35 1   
    20    11    12 ar  
    21    11    36 1   
    22    12    13 ar  
    23    12    49 1   
    24    13    14 ar  
    25    13    37 1   
    26    14    21 ar  
    27    14    38 1   
    28    15    16 ar  
    29    15    20 ar  
    30    15    39 1   
    31    16    17 ar  
    32    16    40 1   
    33    17    18 ar  
    34    17    41 1   
    35    18    19 ar  
    36    18    42 1   
    37    19    20 ar  
    38    19    51 1   
    39    21    29 1   
    40    22    25 1   
    41    23    24 1   
    42    23    28 1   
    43    24    25 1   
    44    24    26 1   
    45    24    43 1   
    46    25    29 2   
    47    26    27 1   
    48    26    44 1   
    49    26    45 1   
    50    27    28 1   
    51    27    46 1   
    52    28    29 1   
    53    28    47 1   
    54    30    49 1   
    55    31    50 1   
@<TRIPOS>SUBSTRUCTURE
     1 OBC         1 TEMP              0 ****  ****    0 ROOT
