@<TRIPOS>MOLECULE
OCF
   34    34     1     0     0
SMALL
abcg2


@<TRIPOS>ATOM
      1 N1          13.4210    -1.8470    14.8710 nb         1 OCF      -0.694000
      2 C2          12.4100    -1.7450    15.7190 ca         1 OCF       0.193300
      3 C2A         12.5530    -2.3970    17.0630 c3         1 OCF      -0.124400
      4 C3          11.2330    -1.0560    15.3820 ca         1 OCF       0.102100
      5 O3          10.2100    -0.9580    16.2480 oh         1 OCF      -0.492100
      6 C4          11.1100    -0.4780    14.1140 ca         1 OCF      -0.088900
      7 C4A          9.9130     0.2430    13.6660 ce         1 OCF       0.394800
      8 N            9.1730     0.8640    14.4930 n2         1 OCF      -0.364700
      9 C5          12.1880    -0.6180    13.2260 ca         1 OCF      -0.039300
     10 C6          13.3090    -1.2990    13.6670 ca         1 OCF       0.269900
     11 C5A         12.1350    -0.1170    11.8060 c3         1 OCF       0.288900
     12 O4P         11.4000    -1.0260    11.0420 os         1 OCF      -0.568400
     13 P           10.4110    -0.4260     9.7710 p5         1 OCF       1.254900
     14 O2P          9.3090     0.3570    10.4900 o          1 OCF      -0.910833
     15 O3P         11.3360     0.4420     8.9240 o          1 OCF      -0.910833
     16 O1P          9.9610    -1.7340     9.1380 o          1 OCF      -0.910833
     17 OG           8.1380     1.4960    13.8740 os         1 OCF      -0.256000
     18 CB           7.2340     2.0250    14.8380 c3         1 OCF       0.192600
     19 CA           6.4350     0.9500    15.5400 c3         1 OCF      -0.230400
     20 C            5.5570     0.0990    14.5970 c          1 OCF       0.732000
     21 OXT          5.4470    -1.1110    14.8760 o          1 OCF      -0.745000
     22 O            5.0050     0.7030    13.6550 o          1 OCF      -0.745000
     23 H2A1        13.5350    -2.8560    17.1450 hc         1 OCF       0.020700
     24 H2A2        12.4490    -1.6830    17.8830 hc         1 OCF       0.020700
     25 H2A3        11.8090    -3.1840    17.2190 hc         1 OCF       0.020700
     26 HO3         10.3640    -1.5030    17.0280 ho         1 OCF       0.430000
     27 H6          14.1640    -1.4110    13.0060 h4         1 OCF       0.002100
     28 H5A1        13.1660    -0.0200    11.4370 h1         1 OCF      -0.002300
     29 H5A2        11.7130     0.8960    11.7860 h1         1 OCF      -0.002300
     30 HB1          7.7820     2.6430    15.5570 h1         1 OCF       0.009200
     31 HB2          6.5730     2.6790    14.2690 h1         1 OCF       0.009200
     32 HA1          7.0980     0.3130    16.1310 hc         1 OCF       0.007700
     33 HA2          5.7760     1.4510    16.2600 hc         1 OCF       0.007700
     34 H4A          9.6930     0.2510    12.5940 h4         1 OCF       0.128800
@<TRIPOS>BOND
     1     1     2 ar  
     2     1    10 ar  
     3     2     3 1   
     4     2     4 ar  
     5     3    23 1   
     6     3    24 1   
     7     3    25 1   
     8     4     5 1   
     9     4     6 ar  
    10     5    26 1   
    11     6     7 1   
    12     6     9 ar  
    13     7     8 2   
    14     7    34 1   
    15     8    17 1   
    16     9    10 ar  
    17     9    11 1   
    18    10    27 1   
    19    11    12 1   
    20    11    28 1   
    21    11    29 1   
    22    12    13 1   
    23    13    14 1   
    24    13    15 1   
    25    13    16 1   
    26    17    18 1   
    27    18    19 1   
    28    18    30 1   
    29    18    31 1   
    30    19    20 1   
    31    19    32 1   
    32    19    33 1   
    33    20    21 1   
    34    20    22 1   
@<TRIPOS>SUBSTRUCTURE
     1 OCF         1 TEMP              0 ****  ****    0 ROOT
