@<TRIPOS>MOLECULE
OFC
   32    33     1     0     0
SMALL
abcg2


@<TRIPOS>ATOM
      1 N1          -9.7650    57.4170    -9.6090 n          1 OFC      -0.335000
      2 C2         -10.7240    58.0980    -8.8420 c          1 OFC       0.704400
      3 O2         -11.8840    58.1160    -9.2370 o          1 OFC      -0.628000
      4 P           -5.5340    55.1780   -10.1770 p5         1 OFC       1.262900
      5 N3         -10.3280    58.6980    -7.7030 nc         1 OFC      -0.829100
      6 C4          -9.0580    58.6820    -7.3400 cd         1 OFC       0.774500
      7 N4          -8.7270    59.2830    -6.1950 nv         1 OFC      -1.057200
      8 C5          -8.0530    58.0580    -8.1330 cd         1 OFC      -0.493600
      9 C6          -8.4570    57.4420    -9.2660 cc         1 OFC       0.075600
     10 C1         -10.2400    56.7660   -10.8420 c5         1 OFC       0.318700
     11 O4          -9.1620    56.3310   -11.6080 os         1 OFC      -0.429000
     12 C7         -11.0670    55.5180   -10.5390 c5         1 OFC       0.107300
     13 F2         -11.9280    55.3140   -11.6130 f          1 OFC      -0.274000
     14 C3         -10.0030    54.4340   -10.5410 c5         1 OFC       0.108300
     15 O3         -10.4640    53.1370   -10.7740 oh         1 OFC      -0.698000
     16 C8          -9.0930    54.9000   -11.6700 c5         1 OFC       0.147300
     17 C9          -7.6620    54.4070   -11.6030 c3         1 OFC       0.255600
     18 O5          -7.1220    54.5320   -10.3300 os         1 OFC      -0.592400
     19 OP1         -5.3240    55.0540    -8.6770 o          1 OFC      -0.916500
     20 OP2         -4.6660    54.2800   -11.0520 o          1 OFC      -0.916500
     21 H41         -9.4320    59.7430    -5.6440 hn         1 OFC       0.483000
     22 H42         -7.7750    59.3200    -5.8760 hn         1 OFC       0.483000
     23 H5          -7.0080    58.0740    -7.8590 ha         1 OFC       0.236000
     24 H6          -7.7350    56.9830    -9.9300 h4         1 OFC       0.322000
     25 H1         -10.8260    57.5020   -11.3980 h2         1 OFC       0.085700
     26 H2         -11.6660    55.5750    -9.6310 h1         1 OFC       0.075700
     27 H3          -9.4590    54.5070    -9.5910 h1         1 OFC       0.099700
     28 HO3        -10.7770    52.7660    -9.9430 ho         1 OFC       0.490000
     29 H4          -9.5120    54.5750   -12.6320 h1         1 OFC       0.030700
     30 H7          -7.6850    53.3560   -11.9270 h1         1 OFC       0.012200
     31 H5'         -7.0870    54.9420   -12.3700 h1         1 OFC       0.012200
     32 OP3         -5.6640    56.6140   -10.6930 o          1 OFC      -0.916500
@<TRIPOS>BOND
     1     1     2 1   
     2     1     9 1   
     3     1    10 1   
     4     2     3 2   
     5     2     5 1   
     6     4    18 1   
     7     4    19 1   
     8     4    20 1   
     9     4    32 1   
    10     5     6 2   
    11     6     7 1   
    12     6     8 1   
    13     7    21 1   
    14     7    22 1   
    15     8     9 2   
    16     8    23 1   
    17     9    24 1   
    18    10    11 1   
    19    10    12 1   
    20    10    25 1   
    21    11    16 1   
    22    12    13 1   
    23    12    14 1   
    24    12    26 1   
    25    14    15 1   
    26    14    16 1   
    27    14    27 1   
    28    15    28 1   
    29    16    17 1   
    30    16    29 1   
    31    17    18 1   
    32    17    30 1   
    33    17    31 1   
@<TRIPOS>SUBSTRUCTURE
     1 OFC         1 TEMP              0 ****  ****    0 ROOT
