@<TRIPOS>MOLECULE
OJU
   69    70     1     0     0
SMALL
abcg2


@<TRIPOS>ATOM
      1 C25         -2.5330     0.8820    -0.2560 c3         1 OJU      -0.125400
      2 P           -1.1430    -5.7340     0.4260 p5         1 OJU       1.459800
      3 O1          -1.7310    -6.2520     1.6910 o          1 OJU      -0.821000
      4 O2          -2.2750    -4.7490    -0.2060 os         1 OJU      -0.606400
      5 O3          -0.6050    -6.6550    -0.6160 o          1 OJU      -0.821000
      6 C01         -0.7080    -1.3210    -1.3680 c3         1 OJU       0.076900
      7 C03         -1.8960    -1.8790     0.6970 c3         1 OJU       0.076900
      8 C04         -2.9670    -0.3890    -0.9650 c3         1 OJU       0.100600
      9 C05         -2.7290    -2.7460    -1.4870 c3         1 OJU       0.102600
     10 C06         -2.0310    -4.0880    -1.4510 c3         1 OJU       0.189600
     11 C29         -3.3780     2.0650    -0.7430 c3         1 OJU       0.105000
     12 C32         -3.6030     3.6970     1.0760 c          1 OJU       0.596100
     13 C37         -3.0340     5.0060     1.6120 c3         1 OJU       0.037600
     14 N02         -2.0550    -1.5890    -0.7650 n4         1 OJU      -0.501000
     15 N31         -3.0130     3.2930    -0.0600 ns         1 OJU      -0.516900
     16 O36         -4.5430     3.1180     1.6120 o          1 OJU      -0.592100
     17 H1          -2.6510     0.7890     0.8230 hc         1 OJU       0.073200
     18 H2          -1.4860     1.1030    -0.4580 hc         1 OJU       0.073200
     19 H5          -0.1040    -2.2210    -1.3170 hx         1 OJU       0.102867
     20 H6          -0.8500    -1.0100    -2.4000 hx         1 OJU       0.102867
     21 H7          -0.2210    -0.5410    -0.7950 hx         1 OJU       0.102867
     22 H8          -2.8780    -2.0800     1.1170 hx         1 OJU       0.102867
     23 H9          -1.2470    -2.7370     0.8140 hx         1 OJU       0.102867
     24 H10         -1.4450    -1.0140     1.1710 hx         1 OJU       0.102867
     25 H11         -3.9510    -0.6990    -0.6170 hx         1 OJU       0.072700
     26 H12         -3.0130    -0.2340    -2.0420 hx         1 OJU       0.072700
     27 H13         -2.8230    -2.4250    -2.5230 hx         1 OJU       0.065700
     28 H14         -3.7250    -2.8360    -1.0560 hx         1 OJU       0.065700
     29 H15         -0.9620    -4.0050    -1.6440 h1         1 OJU       0.078700
     30 H16         -2.4680    -4.6820    -2.2570 h1         1 OJU       0.078700
     31 H17         -3.2300     2.2150    -1.8130 h1         1 OJU       0.055200
     32 H18         -4.4360     1.8770    -0.5670 h1         1 OJU       0.055200
     33 H19         -3.6810     5.8280     1.3140 h1         1 OJU       0.089200
     34 CL1         -2.9760     5.0100     3.4100 cl         1 OJU      -0.243000
     35 H21         -2.0190     5.1770     1.2650 h1         1 OJU       0.089200
     36 H22         -2.1560     3.7550    -0.3570 hn         1 OJU       0.349500
     37 O4          -0.0000    -4.6410     0.8390 os         1 OJU      -0.735800
     38 P1           1.4480    -4.2760     0.2000 p5         1 OJU       1.481800
     39 O5           1.3320    -3.9810    -1.2620 o          1 OJU      -0.852000
     40 O6           1.5890    -2.8740     1.0220 os         1 OJU      -0.604400
     41 O7           2.4720    -5.2540     0.6740 o          1 OJU      -0.852000
     42 C1           2.6370    -1.9790     0.6460 c3         1 OJU       0.226600
     43 C2           2.5300    -0.7330     1.4880 c5         1 OJU       0.161300
     44 C3           3.6770     0.2520     1.3360 c5         1 OJU       0.103300
     45 C4           3.0090     1.5710     1.7650 c5         1 OJU       0.085300
     46 C5           1.5190     1.3810     1.3690 c5         1 OJU       0.319700
     47 O8           1.3410     0.0030     1.1200 os         1 OJU      -0.464000
     48 H4           3.6130    -2.4420     0.8220 h1         1 OJU       0.045200
     49 H23          2.5540    -1.7260    -0.4120 h1         1 OJU       0.045200
     50 H24          2.4500    -1.0190     2.5430 h1         1 OJU       0.079700
     51 H25          4.5140    -0.0090     1.9880 h1         1 OJU       0.067700
     52 O9           4.1030     0.3210    -0.0180 oh         1 OJU      -0.710000
     53 H27          3.0640     1.6670     2.8500 h1         1 OJU       0.063700
     54 O10          3.5670     2.7050     1.1310 oh         1 OJU      -0.712000
     55 H29          0.8650     1.7150     2.1680 h2         1 OJU       0.110700
     56 N1           1.1030     2.1370     0.1850 n          1 OJU      -0.309000
     57 C8           0.3490     3.3140     0.3670 c          1 OJU       0.711400
     58 N2          -0.1470     3.9280    -0.7380 nc         1 OJU      -0.827100
     59 C9           0.1450     3.4820    -1.9580 cd         1 OJU       0.786500
     60 C10          0.9880     2.3490    -2.1650 cd         1 OJU      -0.511600
     61 C11          1.4280     1.7060    -1.0620 cc         1 OJU       0.055600
     62 N3          -0.3920     4.1220    -3.0030 nv         1 OJU      -1.041200
     63 O11          0.1400     3.7330     1.5070 o          1 OJU      -0.561000
     64 H26          4.4150     1.2280    -0.1650 ho         1 OJU       0.511000
     65 H28          4.2570     3.0730     1.6970 ho         1 OJU       0.515000
     66 H30          1.2370     2.0020    -3.1560 ha         1 OJU       0.208000
     67 H31          2.0430     0.8210    -1.1080 h4         1 OJU       0.245000
     68 H32         -0.9870     4.9200    -2.8520 hn         1 OJU       0.501500
     69 H33         -0.2130     3.8210    -3.9460 hn         1 OJU       0.501500
@<TRIPOS>BOND
     1     1     8 1   
     2     1    11 1   
     3     1    17 1   
     4     1    18 1   
     5     2     3 1   
     6     2     4 1   
     7     2     5 1   
     8     2    37 1   
     9     4    10 1   
    10     6    14 1   
    11     6    19 1   
    12     6    20 1   
    13     6    21 1   
    14     7    14 1   
    15     7    22 1   
    16     7    23 1   
    17     7    24 1   
    18     8    14 1   
    19     8    25 1   
    20     8    26 1   
    21     9    10 1   
    22     9    14 1   
    23     9    27 1   
    24     9    28 1   
    25    10    29 1   
    26    10    30 1   
    27    11    15 1   
    28    11    31 1   
    29    11    32 1   
    30    12    13 1   
    31    12    15 1   
    32    12    16 2   
    33    13    33 1   
    34    13    34 1   
    35    13    35 1   
    36    15    36 1   
    37    37    38 1   
    38    38    39 1   
    39    38    40 1   
    40    38    41 1   
    41    40    42 1   
    42    42    43 1   
    43    42    48 1   
    44    42    49 1   
    45    43    44 1   
    46    43    47 1   
    47    43    50 1   
    48    44    45 1   
    49    44    51 1   
    50    44    52 1   
    51    45    46 1   
    52    45    53 1   
    53    45    54 1   
    54    46    47 1   
    55    46    55 1   
    56    46    56 1   
    57    52    64 1   
    58    54    65 1   
    59    56    57 1   
    60    56    61 1   
    61    57    58 1   
    62    57    63 2   
    63    58    59 2   
    64    59    60 1   
    65    59    62 1   
    66    60    61 2   
    67    60    66 1   
    68    61    67 1   
    69    62    68 1   
    70    62    69 1   
@<TRIPOS>SUBSTRUCTURE
     1 OJU         1 TEMP              0 ****  ****    0 ROOT
