@<TRIPOS>MOLECULE
OKQ
   37    38     1     0     0
SMALL
abcg2


@<TRIPOS>ATOM
      1 C2          -1.9350    -1.2640     0.3180 c          1 OKQ       0.711400
      2 C4          -3.8350    -2.4810    -0.2530 cc         1 OKQ       0.779500
      3 C5          -4.2870    -1.4650    -1.1510 cc         1 OKQ      -0.502600
      4 C6          -3.5010    -0.3800    -1.2680 cd         1 OKQ       0.038600
      5 O2          -0.9000    -1.1330     0.9530 o          1 OKQ      -0.500000
      6 C1          -1.5630     0.9630    -0.7600 c5         1 OKQ       0.339700
      7 C7          -1.3260     1.8210     0.4810 c5         1 OKQ       0.125300
      8 C3          -0.1100     2.6360     0.0340 c5         1 OKQ       0.096300
      9 C8           0.6670     1.5890    -0.7770 c5         1 OKQ       0.138300
     10 C9           1.7220     0.9010     0.0660 c3         1 OKQ       0.200600
     11 N1          -2.3450    -0.2450    -0.5670 n          1 OKQ      -0.311000
     12 N3          -2.7160    -2.3600     0.4310 nd         1 OKQ      -0.764100
     13 N4          -4.5580    -3.5880    -0.0950 nv         1 OKQ      -1.047200
     14 O6          -2.4810     2.5420     0.7660 os         1 OKQ      -0.436000
     15 O3          -0.5740     3.7000    -0.7550 oh         1 OKQ      -0.712000
     16 O4          -0.3000     0.6660    -1.2800 os         1 OKQ      -0.407000
     17 O5           2.3950    -0.0660    -0.7120 os         1 OKQ      -0.555400
     18 H1          -5.2040    -1.5560    -1.7140 ha         1 OKQ       0.191000
     19 H2          -3.7570     0.4350    -1.9300 h4         1 OKQ       0.195000
     20 H3          -2.1390     1.5640    -1.4750 h2         1 OKQ       0.056700
     21 H4          -1.0290     1.1990     1.3330 h1         1 OKQ       0.091700
     22 H5           0.4850     2.9960     0.8830 h1         1 OKQ       0.055700
     23 H6           1.1630     2.0660    -1.6310 h1         1 OKQ       0.069700
     24 H7           2.4130     1.6720     0.4210 h1         1 OKQ       0.035200
     25 H8           1.2620     0.4390     0.9460 h1         1 OKQ       0.035200
     26 H9          -3.4100     3.6680     2.1670 h1         1 OKQ       0.028367
     27 H10         -2.2290     2.5250     2.8310 h1         1 OKQ       0.028367
     28 H11         -1.6790     4.0060     2.0230 h1         1 OKQ       0.028367
     29 H12         -4.2440    -4.3130     0.5280 hn         1 OKQ       0.494000
     30 H13         -5.4160    -3.7340    -0.5980 hn         1 OKQ       0.494000
     31 H14          0.1860     4.1870    -1.0900 ho         1 OKQ       0.502000
     32 P1           3.7390    -0.7840    -0.1040 p5         1 OKQ       1.230800
     33 O1           4.6000     0.2440     0.5530 o          1 OKQ      -0.756000
     34 H17          2.7980    -1.1620     2.3970 hs         1 OKQ       0.277800
     35 S1           2.9260    -2.0690     1.4210 sh         1 OKQ      -0.647200
     36 OP3          4.2190    -1.7360    -1.1460 o          1 OKQ      -0.756000
     37 CM2         -2.4340     3.2130     2.0030 c3         1 OKQ       0.150900
@<TRIPOS>BOND
     1     1     5 2   
     2     1    11 1   
     3     1    12 1   
     4     2     3 1   
     5     2    12 2   
     6     2    13 1   
     7     3     4 2   
     8     3    18 1   
     9     4    11 1   
    10     4    19 1   
    11     6     7 1   
    12     6    11 1   
    13     6    16 1   
    14     6    20 1   
    15     7     8 1   
    16     7    14 1   
    17     7    21 1   
    18     8     9 1   
    19     8    15 1   
    20     8    22 1   
    21     9    10 1   
    22     9    16 1   
    23     9    23 1   
    24    10    17 1   
    25    10    24 1   
    26    10    25 1   
    27    13    29 1   
    28    13    30 1   
    29    14    37 1   
    30    15    31 1   
    31    17    32 1   
    32    26    37 1   
    33    27    37 1   
    34    28    37 1   
    35    32    33 1   
    36    32    35 1   
    37    32    36 1   
    38    34    35 1   
@<TRIPOS>SUBSTRUCTURE
     1 OKQ         1 TEMP              0 ****  ****    0 ROOT
