@<TRIPOS>MOLECULE
OL9
   49    51     1     0     0
SMALL
abcg2


@<TRIPOS>ATOM
      1 C10        164.2710   177.1380   143.9420 c6         1 OL9      -0.063700
      2 C13        165.2180   176.4120   144.9100 c6         1 OL9      -0.058400
      3 C15        163.9430   173.5340   144.9860 ca         1 OL9      -0.077300
      4 C17        166.4280   171.8440   144.1730 ca         1 OL9      -0.260500
      5 C20        164.5050   173.4670   146.2680 ca         1 OL9      -0.116000
      6 C21        167.7280   172.2040   144.5090 ca         1 OL9      -0.006000
      7 C22        165.7750   170.8050   144.8310 ca         1 OL9      -0.006000
      8 C24        162.0140   172.3290   145.8940 ca         1 OL9      -0.136000
      9 C26        162.5930   172.2750   147.1530 ca         1 OL9      -0.123000
     10 C28        166.4270   170.1240   145.8460 ca         1 OL9      -0.126000
     11 C09        164.7330   174.1620   143.8400 c6         1 OL9      -0.136700
     12 C11        165.8270   175.1390   144.3100 c6         1 OL9      -0.063900
     13 C12        163.8860   174.9050   142.7820 c6         1 OL9      -0.063900
     14 C14        163.2340   176.1420   143.4040 c6         1 OL9      -0.058400
     15 C16        165.0430   177.8750   142.8360 c3         1 OL9      -0.060400
     16 C18        164.1670   178.7570   141.9410 c3         1 OL9      -0.199400
     17 C19        162.6840   172.9440   144.8500 ca         1 OL9       0.176000
     18 C23        163.8370   172.8530   147.3050 ca         1 OL9       0.141000
     19 C25        165.0000   179.5790   140.9420 c          1 OL9       0.705000
     20 C27        168.3850   171.5250   145.5250 ca         1 OL9      -0.126000
     21 C29        167.7220   170.4980   146.1860 ca         1 OL9       0.166000
     22 F03        162.0420   172.9370   143.6570 f          1 OL9      -0.159000
     23 F04        164.4350   172.8140   148.5230 f          1 OL9      -0.184000
     24 O07        164.8650   179.3170   139.7170 o          1 OL9      -0.741500
     25 O08        165.7670   180.4550   141.4250 o          1 OL9      -0.741500
     26 S02        165.5590   172.7640   142.9290 sy         1 OL9       1.012500
     27 CL01       168.5370   169.6530   147.4750 cl         1 OL9      -0.209000
     28 H101       163.7340   177.9010   144.5160 hc         1 OL9       0.045700
     29 H132       166.0320   177.0780   145.2060 hc         1 OL9       0.039450
     30 H131       164.6710   176.1610   145.8220 hc         1 OL9       0.039450
     31 H201       165.4800   173.8790   146.4690 ha         1 OL9       0.141000
     32 H211       168.2280   173.0050   143.9820 ha         1 OL9       0.144000
     33 H221       164.7650   170.5350   144.5580 ha         1 OL9       0.144000
     34 H241       161.0420   171.8940   145.7080 ha         1 OL9       0.136000
     35 H261       162.0960   171.7990   147.9870 ha         1 OL9       0.132000
     36 H281       165.9340   169.3180   146.3720 ha         1 OL9       0.132500
     37 H112       166.5050   174.6740   145.0230 hc         1 OL9       0.063700
     38 H111       166.4300   175.3940   143.4410 hc         1 OL9       0.063700
     39 H122       163.1370   174.2540   142.3470 hc         1 OL9       0.063700
     40 H121       164.5560   175.2090   141.9780 hc         1 OL9       0.063700
     41 H141       162.5960   176.6170   142.6580 hc         1 OL9       0.039450
     42 H142       162.5780   175.8320   144.2220 hc         1 OL9       0.039450
     43 H161       165.5880   177.1630   142.2100 hc         1 OL9       0.042700
     44 H162       165.7970   178.5060   143.3130 hc         1 OL9       0.042700
     45 H181       163.6020   179.4510   142.5720 hc         1 OL9       0.018200
     46 H182       163.4520   178.1490   141.3870 hc         1 OL9       0.018200
     47 H271       169.3960   171.7900   145.8000 ha         1 OL9       0.132500
     48 O05        164.5240   171.9060   142.3800 o          1 OL9      -0.514000
     49 O06        166.5370   173.3280   142.0150 o          1 OL9      -0.514000
@<TRIPOS>BOND
     1     1     2 1   
     2     1    14 1   
     3     1    15 1   
     4     1    28 1   
     5     2    12 1   
     6     2    29 1   
     7     2    30 1   
     8     3     5 ar  
     9     3    11 1   
    10     3    17 ar  
    11     4     6 ar  
    12     4     7 ar  
    13     4    26 1   
    14     5    18 ar  
    15     5    31 1   
    16     6    20 ar  
    17     6    32 1   
    18     7    10 ar  
    19     7    33 1   
    20     8     9 ar  
    21     8    17 ar  
    22     8    34 1   
    23     9    18 ar  
    24     9    35 1   
    25    10    21 ar  
    26    10    36 1   
    27    11    12 1   
    28    11    13 1   
    29    11    26 1   
    30    12    37 1   
    31    12    38 1   
    32    13    14 1   
    33    13    39 1   
    34    13    40 1   
    35    14    41 1   
    36    14    42 1   
    37    15    16 1   
    38    15    43 1   
    39    15    44 1   
    40    16    19 1   
    41    16    45 1   
    42    16    46 1   
    43    17    22 1   
    44    18    23 1   
    45    19    24 1   
    46    19    25 1   
    47    20    21 ar  
    48    20    47 1   
    49    21    27 1   
    50    26    48 2   
    51    26    49 2   
@<TRIPOS>SUBSTRUCTURE
     1 OL9         1 TEMP              0 ****  ****    0 ROOT
