@<TRIPOS>MOLECULE
OQK
   37    39     1     0     0
SMALL
abcg2


@<TRIPOS>ATOM
      1 C4         -11.1760    31.1490   -36.7730 ca         1 OQK      -0.108000
      2 C14        -18.2360    26.8360   -35.9640 ca         1 OQK      -0.200300
      3 C5         -12.1940    30.2470   -37.0590 ca         1 OQK      -0.154000
      4 C6         -12.6880    29.4440   -36.0500 ca         1 OQK      -0.090000
      5 C11        -16.2380    26.5410   -34.0450 ca         1 OQK      -0.066500
      6 C7         -12.1980    29.5450   -34.7420 ca         1 OQK      -0.165900
      7 C8         -12.7710    28.6810   -33.7100 ce         1 OQK       0.499800
      8 C9         -13.3500    26.4000   -31.9250 cc         1 OQK       0.473800
      9 C10        -15.2070    26.3310   -33.0340 cc         1 OQK       0.441000
     10 C12        -16.4190    27.7600   -34.6930 ca         1 OQK      -0.084000
     11 C13        -17.4110    27.9060   -35.6500 ca         1 OQK      -0.072500
     12 N1         -13.4820    27.6750   -34.0450 n2         1 OQK      -0.569100
     13 N2         -13.9760    26.9180   -33.0200 na         1 OQK      -0.082600
     14 C3         -10.6650    31.2320   -35.4890 ca         1 OQK      -0.103000
     15 N3         -14.1560    25.5800   -31.3090 nd         1 OQK      -0.378000
     16 C2         -11.1660    30.4540   -34.4450 ca         1 OQK      -0.087600
     17 N4         -15.3130    25.5370   -32.0040 nd         1 OQK      -0.370000
     18 F1         -20.4820    26.5240   -36.5780 f          1 OQK      -0.118333
     19 F2         -19.4540    28.2020   -37.4510 f          1 OQK      -0.118333
     20 F3         -18.9940    26.2000   -38.0920 f          1 OQK      -0.118333
     21 C16        -18.0750    25.6190   -35.3070 ca         1 OQK      -0.072500
     22 C17        -17.0840    25.4740   -34.3550 ca         1 OQK      -0.084000
     23 H1         -10.7780    31.7850   -37.5540 ha         1 OQK       0.093000
     24 H2         -12.5980    30.1710   -38.0600 ha         1 OQK       0.094000
     25 H3         -13.4760    28.7340   -36.2670 ha         1 OQK       0.109000
     26 H4         -12.5830    28.9770   -32.6810 h4         1 OQK       0.080800
     27 H5         -15.8040    28.6140   -34.4500 ha         1 OQK       0.138500
     28 H6         -17.5260    28.8640   -36.1370 ha         1 OQK       0.125000
     29 H7          -9.8600    31.9230   -35.2850 ha         1 OQK       0.134000
     30 H10        -18.7110    24.7750   -35.5360 ha         1 OQK       0.125000
     31 H11        -16.9560    24.5220   -33.8600 ha         1 OQK       0.138500
     32 H8         -11.4700    25.5270   -30.9680 hs         1 OQK       0.187800
     33 C1         -10.5390    30.6510   -33.0550 c          1 OQK       0.713600
     34 S1         -11.6900    26.7330   -31.5080 sh         1 OQK      -0.257100
     35 C15        -19.2910    26.9490   -37.0190 c3         1 OQK       0.355300
     36 O1         -11.2390    30.3740   -32.0610 o          1 OQK      -0.705000
     37 O2          -9.3790    31.0920   -33.0510 o          1 OQK      -0.705000
@<TRIPOS>BOND
     1     1     3 ar  
     2     1    14 ar  
     3     1    23 1   
     4     2    11 ar  
     5     2    21 ar  
     6     2    35 1   
     7     3     4 ar  
     8     3    24 1   
     9     4     6 ar  
    10     4    25 1   
    11     5     9 1   
    12     5    10 ar  
    13     5    22 ar  
    14     6     7 1   
    15     6    16 ar  
    16     7    12 2   
    17     7    26 1   
    18     8    13 1   
    19     8    15 2   
    20     8    34 1   
    21     9    13 1   
    22     9    17 2   
    23    10    11 ar  
    24    10    27 1   
    25    11    28 1   
    26    12    13 1   
    27    14    16 ar  
    28    14    29 1   
    29    15    17 1   
    30    16    33 1   
    31    18    35 1   
    32    19    35 1   
    33    20    35 1   
    34    21    22 ar  
    35    21    30 1   
    36    22    31 1   
    37    32    34 1   
    38    33    36 1   
    39    33    37 1   
@<TRIPOS>SUBSTRUCTURE
     1 OQK         1 TEMP              0 ****  ****    0 ROOT
