@<TRIPOS>MOLECULE
OTP
  114   113     1     0     0
SMALL
abcg2


@<TRIPOS>ATOM
      1 O7           1.1260    62.7300    48.6660 o          1 OTP      -0.905833
      2 P2          -0.3960    62.7710    48.7360 p5         1 OTP       1.355900
      3 O5          -1.0960    61.5470    48.1560 o          1 OTP      -0.905833
      4 O6          -0.9650    63.2740    50.0550 o          1 OTP      -0.905833
      5 O4          -0.8960    63.9770    47.5830 os         1 OTP      -0.739800
      6 P1          -0.3310    65.4320    47.2170 p5         1 OTP       1.463800
      7 O2          -1.4400    66.1670    46.5100 o          1 OTP      -0.885500
      8 O3           0.3930    66.1000    48.3520 o          1 OTP      -0.885500
      9 O1           0.8630    65.1110    46.1060 os         1 OTP      -0.582400
     10 C40          0.5280    64.4630    44.8900 c3         1 OTP       0.260800
     11 C39          0.8670    63.0050    44.9350 c2         1 OTP      -0.119200
     12 C37          1.6240    62.3140    44.0800 c2         1 OTP      -0.241400
     13 C38          2.2990    62.8940    42.8700 c3         1 OTP      -0.016900
     14 C36          1.8760    60.8360    44.2340 c3         1 OTP       0.006800
     15 C35          1.2880    60.1330    45.4580 c3         1 OTP      -0.075200
     16 C34          1.6960    58.6910    45.4600 c2         1 OTP      -0.129200
     17 C32          0.9330    57.6170    45.2360 c2         1 OTP      -0.191400
     18 C33         -0.5490    57.6690    44.9960 c3         1 OTP      -0.033900
     19 C31          1.5410    56.2400    45.1690 c3         1 OTP      -0.014200
     20 C30          1.0160    55.2580    46.2300 c3         1 OTP      -0.053200
     21 C29          1.5660    53.8730    46.0340 c2         1 OTP      -0.183200
     22 C27          1.0490    52.9300    45.2420 c2         1 OTP      -0.154400
     23 C28         -0.2060    53.1210    44.4400 c3         1 OTP      -0.047900
     24 C26          1.6710    51.5720    45.0450 c3         1 OTP      -0.027200
     25 C25          2.9280    51.2420    45.8490 c3         1 OTP      -0.043200
     26 C24          3.5020    49.9250    45.4240 c2         1 OTP      -0.198200
     27 C22          3.4360    48.7490    46.0540 c2         1 OTP      -0.136400
     28 C23          2.7560    48.5330    47.3750 c3         1 OTP      -0.049900
     29 C21          4.0580    47.5260    45.4340 c3         1 OTP      -0.032200
     30 C20          5.2180    46.9330    46.2470 c3         1 OTP      -0.040200
     31 C19          5.8140    45.7460    45.5550 c2         1 OTP      -0.217200
     32 C17          7.0130    45.6580    44.9720 c2         1 OTP      -0.118400
     33 C18          8.0220    46.7700    44.9410 c3         1 OTP      -0.054900
     34 C16          7.4940    44.4170    44.2640 c3         1 OTP      -0.037200
     35 C15          6.5460    43.2210    44.2010 c3         1 OTP      -0.037200
     36 C14          7.1920    42.0730    43.4860 c2         1 OTP      -0.223200
     37 C12          6.9060    41.5960    42.2710 c2         1 OTP      -0.117400
     38 C13          5.8110    42.1250    41.3900 c3         1 OTP      -0.053900
     39 C11          7.7110    40.4680    41.6810 c3         1 OTP      -0.037200
     40 C10          6.9040    39.1830    41.4360 c3         1 OTP      -0.032200
     41 C9           7.7010    38.1760    40.6680 c2         1 OTP      -0.236200
     42 C7           8.1500    36.9840    41.0700 c2         1 OTP      -0.132400
     43 C8           7.9200    36.4040    42.4360 c3         1 OTP      -0.046900
     44 C6           8.9350    36.1140    40.1230 c3         1 OTP      -0.033200
     45 C5           8.1600    34.8730    39.6540 c3         1 OTP      -0.032200
     46 C4           8.9820    34.0260    38.7350 c2         1 OTP      -0.237200
     47 C2           8.8120    33.8280    37.4250 c2         1 OTP      -0.142400
     48 C3           7.7050    34.4210    36.6040 c3         1 OTP      -0.045900
     49 C1           9.7590    32.9610    36.6460 c3         1 OTP      -0.045900
     50 H401         1.0620    64.9730    44.0840 h1         1 OTP       0.001700
     51 H402        -0.5390    64.5800    44.6660 h1         1 OTP       0.001700
     52 H39          0.4130    62.4770    45.7660 ha         1 OTP       0.243000
     53 H381         3.3700    62.6790    42.8890 hc         1 OTP       0.003033
     54 H382         1.9080    62.4340    41.9590 hc         1 OTP       0.003033
     55 H383         2.1770    63.9700    42.7700 hc         1 OTP       0.003033
     56 H361         2.9620    60.6780    44.2230 hc         1 OTP      -0.006800
     57 H362         1.5140    60.3300    43.3310 hc         1 OTP      -0.006800
     58 H351         0.2020    60.2420    45.4690 hc         1 OTP       0.112200
     59 H352         1.6480    60.6230    46.3680 hc         1 OTP       0.112200
     60 H34          2.7610    58.5230    45.6090 ha         1 OTP       0.137000
     61 H331        -0.9230    58.6780    44.8390 hc         1 OTP       0.031033
     62 H332        -0.8150    57.0760    44.1170 hc         1 OTP       0.031033
     63 H333        -1.1050    57.2430    45.8350 hc         1 OTP       0.031033
     64 H311         2.6290    56.3050    45.2460 hc         1 OTP       0.021700
     65 H312         1.3250    55.8140    44.1830 hc         1 OTP       0.021700
     66 H301        -0.0750    55.2460    46.2100 hc         1 OTP       0.056700
     67 H302         1.2950    55.6270    47.2210 hc         1 OTP       0.056700
     68 H29          2.4910    53.6600    46.5610 ha         1 OTP       0.157000
     69 H281        -0.0000    52.9970    43.3730 hc         1 OTP       0.035033
     70 H282        -0.9520    52.3650    44.6990 hc         1 OTP       0.035033
     71 H283        -0.6630    54.1000    44.5740 hc         1 OTP       0.035033
     72 H261         1.8900    51.4530    43.9760 hc         1 OTP       0.033200
     73 H262         0.9120    50.8110    45.2590 hc         1 OTP       0.033200
     74 H251         2.6990    51.2600    46.9170 hc         1 OTP       0.052200
     75 H252         3.6820    52.0180    45.6840 hc         1 OTP       0.052200
     76 H24          4.0070    49.9420    44.4600 ha         1 OTP       0.160000
     77 H231         2.1820    49.3960    47.7060 hc         1 OTP       0.036700
     78 H232         2.0750    47.6820    47.3160 hc         1 OTP       0.036700
     79 H233         3.4780    48.2970    48.1610 hc         1 OTP       0.036700
     80 H211         4.4230    47.7670    44.4330 hc         1 OTP       0.039700
     81 H212         3.2910    46.7520    45.3090 hc         1 OTP       0.039700
     82 H201         4.8530    46.6260    47.2320 hc         1 OTP       0.046700
     83 H202         5.9620    47.7120    46.4250 hc         1 OTP       0.046700
     84 H19          5.1560    44.8820    45.5080 ha         1 OTP       0.162000
     85 H181         8.9560    46.4530    45.4120 hc         1 OTP       0.039367
     86 H182         8.2700    47.0330    43.9100 hc         1 OTP       0.039367
     87 H183         7.6910    47.6770    45.4420 hc         1 OTP       0.039367
     88 H161         8.4360    44.1020    44.7290 hc         1 OTP       0.042700
     89 H162         7.7700    44.6960    43.2400 hc         1 OTP       0.042700
     90 H151         5.6100    43.5130    43.7220 hc         1 OTP       0.046700
     91 H152         6.2870    42.9080    45.2170 hc         1 OTP       0.046700
     92 H14          8.0220    41.6140    44.0200 ha         1 OTP       0.161000
     93 H131         5.3650    43.0470    41.7600 hc         1 OTP       0.038367
     94 H132         6.1920    42.3220    40.3850 hc         1 OTP       0.038367
     95 H133         5.0030    41.3980    41.2770 hc         1 OTP       0.038367
     96 H111         8.5580    40.2300    42.3300 hc         1 OTP       0.042200
     97 H112         8.1340    40.7980    40.7250 hc         1 OTP       0.042200
     98 H101         6.0060    39.4250    40.8590 hc         1 OTP       0.042700
     99 H102         6.5570    38.7890    42.3920 hc         1 OTP       0.042700
    100 H9           7.9530    38.4860    39.6550 ha         1 OTP       0.160000
    101 H81          7.3000    35.5070    42.3890 hc         1 OTP       0.033033
    102 H82          8.8700    36.0990    42.8830 hc         1 OTP       0.033033
    103 H83          7.4400    37.0980    43.1220 hc         1 OTP       0.033033
    104 H61          9.8630    35.7880    40.6080 hc         1 OTP       0.039700
    105 H62          9.2290    36.6930    39.2440 hc         1 OTP       0.039700
    106 H51          7.2290    35.1940    39.1830 hc         1 OTP       0.041200
    107 H52          7.8720    34.2740    40.5240 hc         1 OTP       0.041200
    108 H4           9.8350    33.5410    39.2050 ha         1 OTP       0.156000
    109 H31          7.0150    35.0360    37.1770 hc         1 OTP       0.031200
    110 H32          8.1150    35.0390    35.8020 hc         1 OTP       0.031200
    111 H33          7.1240    33.6330    36.1170 hc         1 OTP       0.031200
    112 H11         10.5510    32.5510    37.2720 hc         1 OTP       0.031200
    113 H12          9.2300    32.1260    36.1780 hc         1 OTP       0.031200
    114 H13         10.2260    33.5250    35.8330 hc         1 OTP       0.031200
@<TRIPOS>BOND
     1     1     2 1   
     2     2     3 1   
     3     2     4 1   
     4     2     5 1   
     5     5     6 1   
     6     6     7 1   
     7     6     8 1   
     8     6     9 1   
     9     9    10 1   
    10    10    11 1   
    11    10    50 1   
    12    10    51 1   
    13    11    12 2   
    14    11    52 1   
    15    12    13 1   
    16    12    14 1   
    17    13    53 1   
    18    13    54 1   
    19    13    55 1   
    20    14    15 1   
    21    14    56 1   
    22    14    57 1   
    23    15    16 1   
    24    15    58 1   
    25    15    59 1   
    26    16    17 2   
    27    16    60 1   
    28    17    18 1   
    29    17    19 1   
    30    18    61 1   
    31    18    62 1   
    32    18    63 1   
    33    19    20 1   
    34    19    64 1   
    35    19    65 1   
    36    20    21 1   
    37    20    66 1   
    38    20    67 1   
    39    21    22 2   
    40    21    68 1   
    41    22    23 1   
    42    22    24 1   
    43    23    69 1   
    44    23    70 1   
    45    23    71 1   
    46    24    25 1   
    47    24    72 1   
    48    24    73 1   
    49    25    26 1   
    50    25    74 1   
    51    25    75 1   
    52    26    27 2   
    53    26    76 1   
    54    27    28 1   
    55    27    29 1   
    56    28    77 1   
    57    28    78 1   
    58    28    79 1   
    59    29    30 1   
    60    29    80 1   
    61    29    81 1   
    62    30    31 1   
    63    30    82 1   
    64    30    83 1   
    65    31    32 2   
    66    31    84 1   
    67    32    33 1   
    68    32    34 1   
    69    33    85 1   
    70    33    86 1   
    71    33    87 1   
    72    34    35 1   
    73    34    88 1   
    74    34    89 1   
    75    35    36 1   
    76    35    90 1   
    77    35    91 1   
    78    36    37 2   
    79    36    92 1   
    80    37    38 1   
    81    37    39 1   
    82    38    93 1   
    83    38    94 1   
    84    38    95 1   
    85    39    40 1   
    86    39    96 1   
    87    39    97 1   
    88    40    41 1   
    89    40    98 1   
    90    40    99 1   
    91    41    42 2   
    92    41   100 1   
    93    42    43 1   
    94    42    44 1   
    95    43   101 1   
    96    43   102 1   
    97    43   103 1   
    98    44    45 1   
    99    44   104 1   
   100    44   105 1   
   101    45    46 1   
   102    45   106 1   
   103    45   107 1   
   104    46    47 2   
   105    46   108 1   
   106    47    48 1   
   107    47    49 1   
   108    48   109 1   
   109    48   110 1   
   110    48   111 1   
   111    49   112 1   
   112    49   113 1   
   113    49   114 1   
@<TRIPOS>SUBSTRUCTURE
     1 OTP         1 TEMP              0 ****  ****    0 ROOT
