@<TRIPOS>MOLECULE
LA8
   39    41     1     0     0
SMALL
abcg2


@<TRIPOS>ATOM
      1 N1         -10.0470   -17.9100    23.3110 nb         1 LA8      -0.317000
      2 C2         -10.0100   -16.8840    22.4640 ca         1 LA8       0.178900
      3 N3         -10.3050   -15.6170    22.6940 nb         1 LA8      -0.161000
      4 C4         -10.6810   -15.4130    23.9560 ca         1 LA8       0.153500
      5 C5         -10.7710   -16.3810    24.9450 ca         1 LA8      -0.107600
      6 C6         -10.4270   -17.6940    24.5740 ca         1 LA8       0.434900
      7 N6         -10.4760   -18.7180    25.4280 nv         1 LA8      -1.089900
      8 N7         -11.1890   -15.8360    26.1320 nc         1 LA8      -0.593100
      9 C8         -11.3440   -14.5750    25.8620 cd         1 LA8       0.411700
     10 N9         -11.0610   -14.2480    24.5630 na         1 LA8      -0.274300
     11 PA          -5.9750   -12.1000    21.7470 p5         1 LA8       1.470800
     12 PB          -4.9080    -9.3280    22.5440 p5         1 LA8       1.367900
     13 C1         -11.1200   -12.9110    24.0180 c5         1 LA8       0.282300
     14 O1A         -5.8600   -11.9220    20.2570 o          1 LA8      -0.905000
     15 O1B         -3.4510    -9.1900    22.1250 o          1 LA8      -0.953167
     16 C7         -11.0840   -12.6010    21.6380 c5         1 LA8       0.136300
     17 O2         -11.5780   -11.9070    20.5340 oh         1 LA8      -0.702000
     18 O2A         -5.7530   -13.4800    22.3110 o          1 LA8      -0.905000
     19 O2B         -5.9230    -8.8200    21.5310 o          1 LA8      -0.953167
     20 C3         -12.0630   -12.7430    22.8080 c5         1 LA8       0.074300
     21 O3         -12.7750   -11.5350    22.9000 oh         1 LA8      -0.712000
     22 O3A         -5.1070   -11.0700    22.5950 os         1 LA8      -0.715800
     23 O3B         -5.2010    -8.9590    23.9910 o          1 LA8      -0.953167
     24 C9          -9.8670   -11.9580    22.3100 c5         1 LA8       0.130300
     25 O4          -9.8380   -12.5200    23.6150 os         1 LA8      -0.375000
     26 C10         -8.5790   -12.2580    21.5850 c3         1 LA8       0.247600
     27 O5          -7.5030   -11.6120    22.2140 os         1 LA8      -0.543400
     28 H2          -9.6940   -17.1250    21.4540 h5         1 LA8       0.048100
     29 HN6        -10.1760   -19.6340    25.1390 hn         1 LA8       0.490000
     30 HN6A       -10.7100   -18.5760    26.3950 hn         1 LA8       0.490000
     31 H8         -11.6640   -13.8200    26.5660 h5         1 LA8       0.053800
     32 H1         -11.4790   -12.2830    24.8420 h2         1 LA8       0.047700
     33 H6         -10.8120   -13.6010    21.2930 h1         1 LA8       0.108700
     34 HO2        -11.9860   -11.0910    20.8450 ho         1 LA8       0.506000
     35 H3         -12.7360   -13.6000    22.6960 h1         1 LA8       0.036700
     36 HO3        -13.5030   -11.6410    23.5200 ho         1 LA8       0.484000
     37 H4         -10.0080   -10.8690    22.3740 h1         1 LA8       0.076700
     38 H5          -8.4420   -13.3470    21.5540 h1         1 LA8       0.015200
     39 H5'A        -8.7020   -11.9190    20.5480 h1         1 LA8       0.015200
@<TRIPOS>BOND
     1     1     2 ar  
     2     1     6 ar  
     3     2     3 ar  
     4     2    28 1   
     5     3     4 ar  
     6     4     5 ar  
     7     4    10 1   
     8     5     6 ar  
     9     5     8 1   
    10     6     7 1   
    11     7    29 1   
    12     7    30 1   
    13     8     9 2   
    14     9    10 1   
    15     9    31 1   
    16    10    13 1   
    17    11    14 1   
    18    11    18 1   
    19    11    22 1   
    20    11    27 1   
    21    12    15 1   
    22    12    19 1   
    23    12    22 1   
    24    12    23 1   
    25    13    20 1   
    26    13    25 1   
    27    13    32 1   
    28    16    17 1   
    29    16    20 1   
    30    16    24 1   
    31    16    33 1   
    32    17    34 1   
    33    20    21 1   
    34    20    35 1   
    35    21    36 1   
    36    24    25 1   
    37    24    26 1   
    38    24    37 1   
    39    26    27 1   
    40    26    38 1   
    41    26    39 1   
@<TRIPOS>SUBSTRUCTURE
     1 LA8         1 TEMP              0 ****  ****    0 ROOT
