@<TRIPOS>MOLECULE
LAD
   57    59     1     0     0
SMALL
abcg2


@<TRIPOS>ATOM
      1 N           21.1020    66.2080    32.8460 n8         1 LAD      -0.990200
      2 CA          20.5630    66.1420    34.1890 c3         1 LAD       0.088500
      3 CB          19.8520    64.7980    34.4160 c3         1 LAD      -0.064400
      4 CG          18.6890    64.5350    33.4620 c3         1 LAD      -0.077400
      5 CD          17.5620    65.5560    33.5650 c3         1 LAD      -0.078400
      6 CE          16.3620    65.2300    32.6870 c3         1 LAD       0.149800
      7 NZ          16.6920    65.3100    31.2690 n8         1 LAD      -0.998200
      8 C           21.6900    66.2750    35.1980 c          1 LAD       0.646100
      9 O           22.8600    66.2530    34.9220 o          1 LAD      -0.471000
     10 PA          22.1360    66.4550    37.8550 p5         1 LAD       1.393800
     11 O5          22.9110    65.0240    37.7510 os         1 LAD      -0.597400
     12 C5          22.2470    63.7930    37.9540 c3         1 LAD       0.228600
     13 C4          22.8020    63.0560    39.1510 c5         1 LAD       0.147300
     14 O4          24.1960    62.8200    38.9830 os         1 LAD      -0.428000
     15 C1          24.8640    62.8570    40.2100 c5         1 LAD       0.315300
     16 N9          25.8800    63.8950    40.1760 na         1 LAD      -0.300300
     17 C9          27.1000    63.8170    40.7830 ca         1 LAD       0.108500
     18 N3          27.6150    62.7990    41.4690 nb         1 LAD      -0.216000
     19 C2          28.8320    63.0710    41.9060 ca         1 LAD       0.160900
     20 N1          29.5400    64.1860    41.7430 nb         1 LAD      -0.317000
     21 C6          29.0060    65.2020    41.0560 ca         1 LAD       0.439900
     22 N6          29.7070    66.3290    40.9070 nv         1 LAD      -1.071900
     23 C7          27.7110    65.0360    40.5320 ca         1 LAD      -0.088600
     24 N7          26.8930    65.8450    39.7880 nc         1 LAD      -0.561100
     25 C8          25.8180    65.1360    39.6000 cd         1 LAD       0.448700
     26 C10         23.8070    63.0930    41.2940 c5         1 LAD       0.088300
     27 O2          23.3920    61.8400    41.7650 oh         1 LAD      -0.717000
     28 C3          22.6910    63.7730    40.4930 c5         1 LAD       0.104300
     29 O3          21.4160    63.5800    41.0380 oh         1 LAD      -0.713000
     30 O1A         21.0890    66.4240    38.9150 o          1 LAD      -0.790000
     31 O2A         23.1750    67.5120    37.7510 o          1 LAD      -0.790000
     32 O3A         21.2080    66.4060    36.4310 os         1 LAD      -0.566500
     33 H2A         21.5820    67.0880    32.7080 hn         1 LAD       0.392500
     34 H1          20.3370    66.2140    32.1840 hn         1 LAD       0.392500
     35 HA          19.8490    66.9500    34.4120 h1         1 LAD       0.038700
     36 HB2         20.5870    63.9940    34.3130 hc         1 LAD       0.057200
     37 HB1         19.4790    64.7610    35.4420 hc         1 LAD       0.057200
     38 HG2         19.0590    64.4720    32.4350 hc         1 LAD       0.032200
     39 HG1         18.2890    63.5420    33.6910 hc         1 LAD       0.032200
     40 HD2         17.2260    65.6120    34.6050 hc         1 LAD       0.050200
     41 HD1         17.9240    66.5540    33.3000 hc         1 LAD       0.050200
     42 HE2         15.9580    64.2520    32.9880 h1         1 LAD       0.021200
     43 HE1         15.5750    65.9600    32.8890 h1         1 LAD       0.021200
     44 HZ2         15.8470    65.2040    30.7230 hn         1 LAD       0.386500
     45 HZ1         17.2780    64.5270    31.0090 hn         1 LAD       0.386500
     46 H5'2        21.1720    63.9140    38.1090 h1         1 LAD       0.043700
     47 H5'1        22.3750    63.1800    37.0570 h1         1 LAD       0.043700
     48 H4          22.2650    62.0990    39.2110 h1         1 LAD       0.054700
     49 H7          25.3990    61.9200    40.3950 h2         1 LAD       0.110700
     50 H2          29.3240    62.2860    42.4720 h5         1 LAD       0.033100
     51 H62         29.3700    67.0720    40.3200 hn         1 LAD       0.500000
     52 H61         30.6590    66.3760    41.2290 hn         1 LAD       0.500000
     53 H8          24.9580    65.4620    39.0360 h5         1 LAD       0.115800
     54 H9          24.1950    63.7230    42.1040 h1         1 LAD       0.064700
     55 H2O1        22.4670    61.9210    42.0310 ho         1 LAD       0.520000
     56 H3          22.9210    64.8370    40.3760 h1         1 LAD       0.084700
     57 H3O1        21.2220    64.2990    41.6470 ho         1 LAD       0.523000
@<TRIPOS>BOND
     1     1     2 1   
     2     1    33 1   
     3     1    34 1   
     4     2     3 1   
     5     2     8 1   
     6     2    35 1   
     7     3     4 1   
     8     3    36 1   
     9     3    37 1   
    10     4     5 1   
    11     4    38 1   
    12     4    39 1   
    13     5     6 1   
    14     5    40 1   
    15     5    41 1   
    16     6     7 1   
    17     6    42 1   
    18     6    43 1   
    19     7    44 1   
    20     7    45 1   
    21     8     9 2   
    22     8    32 1   
    23    10    11 1   
    24    10    30 1   
    25    10    31 1   
    26    10    32 1   
    27    11    12 1   
    28    12    13 1   
    29    12    46 1   
    30    12    47 1   
    31    13    14 1   
    32    13    28 1   
    33    13    48 1   
    34    14    15 1   
    35    15    16 1   
    36    15    26 1   
    37    15    49 1   
    38    16    17 1   
    39    16    25 1   
    40    17    18 ar  
    41    17    23 ar  
    42    18    19 ar  
    43    19    20 ar  
    44    19    50 1   
    45    20    21 ar  
    46    21    22 1   
    47    21    23 ar  
    48    22    51 1   
    49    22    52 1   
    50    23    24 1   
    51    24    25 2   
    52    25    53 1   
    53    26    27 1   
    54    26    28 1   
    55    26    54 1   
    56    27    55 1   
    57    28    29 1   
    58    28    56 1   
    59    29    57 1   
@<TRIPOS>SUBSTRUCTURE
     1 LAD         1 TEMP              0 ****  ****    0 ROOT
