@<TRIPOS>MOLECULE
LAL
   18    17     1     0     0
SMALL
abcg2


@<TRIPOS>ATOM
      1 CB           2.3960    -1.2520    -0.0850 c3         1 LAL      -0.089100
      2 C            2.7270    -2.1680     2.2930 c          1 LAL       0.723000
      3 O            3.7560    -2.6960     1.8230 o          1 LAL      -0.726000
      4 N            0.9420    -0.4800     1.8120 n3         1 LAL      -0.693600
      5 CA           1.7280    -1.5720     1.2550 c3         1 LAL       0.042500
      6 CH1         -0.2630    -0.1970     1.0710 c3         1 LAL       0.174600
      7 CH2          1.6980     0.7220     2.0720 c3         1 LAL       0.174600
      8 OXT          2.4000    -2.1240     3.4940 o          1 LAL      -0.726000
      9 HB1          2.8080    -2.1510    -0.5380 hc         1 LAL       0.014033
     10 HB2          1.6820    -0.8290    -0.7960 hc         1 LAL       0.014033
     11 HB3          3.2150    -0.5380     0.0240 hc         1 LAL       0.014033
     12 HA           1.0070    -2.3810     1.0680 h1         1 LAL       0.030700
     13 HH11        -0.8890     0.5000     1.6330 h1         1 LAL       0.008200
     14 HH12        -0.8380    -1.1150     0.9290 h1         1 LAL       0.008200
     15 HH13        -0.1000     0.2480     0.0770 h1         1 LAL       0.008200
     16 HH21         1.0860     1.4260     2.6410 h1         1 LAL       0.008200
     17 HH22         2.0340     1.2510     1.1670 h1         1 LAL       0.008200
     18 HH23         2.5780     0.4970     2.6730 h1         1 LAL       0.008200
@<TRIPOS>BOND
     1     1     5 1   
     2     1     9 1   
     3     1    10 1   
     4     1    11 1   
     5     2     3 1   
     6     2     5 1   
     7     2     8 1   
     8     4     5 1   
     9     4     6 1   
    10     4     7 1   
    11     5    12 1   
    12     6    13 1   
    13     6    14 1   
    14     6    15 1   
    15     7    16 1   
    16     7    17 1   
    17     7    18 1   
@<TRIPOS>SUBSTRUCTURE
     1 LAL         1 TEMP              0 ****  ****    0 ROOT
