@<TRIPOS>MOLECULE
LCC
   37    39     1     0     0
SMALL
abcg2


@<TRIPOS>ATOM
      1 O5          -1.8570    13.0590   -12.4530 os         1 LCC      -0.594400
      2 C5          -2.5740    12.7830   -13.6100 c3         1 LCC       0.274600
      3 C4          -3.9830    12.4310   -13.2160 c5         1 LCC       0.097000
      4 O4          -3.9840    11.2570   -12.3840 os         1 LCC      -0.424000
      5 C1          -5.1750    11.2590   -11.6430 c5         1 LCC       0.289700
      6 N1          -4.8630    11.3620   -10.2110 n          1 LCC      -0.323000
      7 C6          -3.6320    11.7380    -9.7820 cc         1 LCC       0.046600
      8 C7          -3.3230    11.8260    -8.4700 cd         1 LCC      -0.387800
      9 C5M         -1.9680    12.2570    -8.0040 c3         1 LCC      -0.037900
     10 C8          -4.3820    11.4680    -7.5710 cd         1 LCC       0.780500
     11 N4          -4.1650    11.5010    -6.2540 nv         1 LCC      -1.053200
     12 N3          -5.5800    11.1030    -7.9860 nc         1 LCC      -0.818100
     13 C2          -5.8750    11.0490    -9.3000 c          1 LCC       0.709400
     14 O2          -6.9820    10.7400    -9.7270 o          1 LCC      -0.607000
     15 C3          -4.7680    13.4440   -12.3600 c5         1 LCC       0.121300
     16 C10         -5.9210    12.4680   -12.2200 c5         1 LCC       0.114300
     17 O6          -6.2470    12.1340   -13.5620 os         1 LCC      -0.464000
     18 O3          -5.1450    14.6090   -13.0250 oh         1 LCC      -0.726000
     19 C9          -5.0160    12.1520   -14.3020 c5         1 LCC       0.117600
     20 P           -0.2110    13.5600   -12.5710 p5         1 LCC       1.269900
     21 O1P         -0.2670    14.8620   -13.3620 o          1 LCC      -0.917833
     22 O2P          0.1180    13.7100   -11.0900 o          1 LCC      -0.917833
     23 OXT          0.4890    12.4110   -13.2870 o          1 LCC      -0.917833
     24 H5'1        -2.1400    11.9550   -14.1910 h1         1 LCC       0.013200
     25 H5'2        -2.6240    13.6440   -14.2940 h1         1 LCC       0.013200
     26 H1          -5.7280    10.3300   -11.7930 h2         1 LCC       0.090700
     27 H6          -2.9000    11.9730   -10.5430 h4         1 LCC       0.296000
     28 H5M1        -1.4530    11.4660    -7.4530 hc         1 LCC       0.051367
     29 H5M2        -1.3400    12.5310    -8.8520 hc         1 LCC       0.051367
     30 H5M3        -2.0220    13.1290    -7.3480 hc         1 LCC       0.051367
     31 H41         -4.8990    11.2360    -5.6190 hn         1 LCC       0.486000
     32 H42         -3.2710    11.7410    -5.8640 hn         1 LCC       0.486000
     33 H3          -4.2730    13.6650   -11.4090 h1         1 LCC       0.089700
     34 H2'1        -6.8130    12.7780   -11.6780 h1         1 LCC       0.104700
     35 H3T         -4.3700    15.1750   -13.1030 ho         1 LCC       0.534000
     36 H6'1        -4.8460    11.1860   -14.7830 h1         1 LCC       0.049200
     37 H6'2        -5.0460    12.9250   -15.0750 h1         1 LCC       0.049200
@<TRIPOS>BOND
     1     1     2 1   
     2     1    20 1   
     3     2     3 1   
     4     2    24 1   
     5     2    25 1   
     6     3     4 1   
     7     3    15 1   
     8     3    19 1   
     9     4     5 1   
    10     5     6 1   
    11     5    16 1   
    12     5    26 1   
    13     6     7 1   
    14     6    13 1   
    15     7     8 2   
    16     7    27 1   
    17     8     9 1   
    18     8    10 1   
    19     9    28 1   
    20     9    29 1   
    21     9    30 1   
    22    10    11 1   
    23    10    12 2   
    24    11    31 1   
    25    11    32 1   
    26    12    13 1   
    27    13    14 2   
    28    15    16 1   
    29    15    18 1   
    30    15    33 1   
    31    16    17 1   
    32    16    34 1   
    33    17    19 1   
    34    18    35 1   
    35    19    36 1   
    36    19    37 1   
    37    20    21 1   
    38    20    22 1   
    39    20    23 1   
@<TRIPOS>SUBSTRUCTURE
     1 LCC         1 TEMP              0 ****  ****    0 ROOT
