@<TRIPOS>MOLECULE
LD5
   34    36     1     0     0
SMALL
abcg2


@<TRIPOS>ATOM
      1 C15         26.6530    -8.8580    21.8560 ca         1 LD5       0.027500
      2 C18         24.6460    -6.3320    17.4950 ca         1 LD5       0.233800
      3 C19         24.9990    -7.4440    16.6120 ce         1 LD5      -0.282800
      4 C27         24.1120    -5.1120    17.1030 ca         1 LD5      -0.225200
      5 N28         23.7160    -4.5180    15.9330 na         1 LD5      -0.294600
      6 C20         25.3290    -7.3420    15.3270 c2         1 LD5      -0.287000
      7 C01         23.2440    -3.3000    16.2610 cc         1 LD5       0.448700
      8 C03         23.8290    -4.1590    18.0980 ca         1 LD5       0.275000
      9 C05         24.5570    -5.5610    19.6650 ca         1 LD5       0.377900
     10 C07         25.3980    -6.8040    21.6810 ca         1 LD5       0.388000
     11 C08         25.4220    -6.7070    23.0820 ca         1 LD5      -0.190500
     12 C09         26.0560    -7.6580    23.8540 ca         1 LD5       0.027500
     13 C10         26.6780    -8.7380    23.2400 ca         1 LD5      -0.324500
     14 C16         26.0170    -7.9100    21.0780 ca         1 LD5      -0.190500
     15 N02         23.2930    -3.0360    17.5420 nd         1 LD5      -0.646700
     16 N04         24.0550    -4.3640    19.3860 nb         1 LD5      -0.182000
     17 N06         24.7750    -5.7800    21.0050 nu         1 LD5      -0.928900
     18 N12         26.5910   -11.2630    24.0340 n8         1 LD5      -1.002100
     19 N17         24.8410    -6.5300    18.7980 nb         1 LD5      -0.225000
     20 O13         27.6090    -9.4350    25.5700 o          1 LD5      -0.549500
     21 O14         28.8070   -10.2650    23.5410 o          1 LD5      -0.549500
     22 S11         27.5530    -9.9250    24.1990 sy         1 LD5       1.134600
     23 H151        27.1310    -9.6950    21.3660 ha         1 LD5       0.134500
     24 H191        25.0220    -8.4130    17.0970 ha         1 LD5       0.202000
     25 H1          23.7270    -4.9040    15.0020 hn         1 LD5       0.367000
     26 H2          25.5940    -8.2240    14.7600 ha         1 LD5       0.166500
     27 H201        25.3860    -6.4020    14.7940 ha         1 LD5       0.166500
     28 H011        22.8660    -2.6270    15.5060 h5         1 LD5       0.069800
     29 H081        24.9440    -5.8660    23.5690 ha         1 LD5       0.134500
     30 H091        26.0620    -7.5480    24.9300 ha         1 LD5       0.134500
     31 H161        26.0070    -8.0240    20.0080 ha         1 LD5       0.134500
     32 H061        24.4640    -5.0080    21.5780 hn         1 LD5       0.517000
     33 H122        27.0840   -12.1090    24.3050 hn         1 LD5       0.469500
     34 H121        25.7210   -11.1850    24.5520 hn         1 LD5       0.469500
@<TRIPOS>BOND
     1     1    13 ar  
     2     1    14 ar  
     3     1    23 1   
     4     2     3 1   
     5     2     4 ar  
     6     2    19 ar  
     7     3     6 2   
     8     3    24 1   
     9     4     5 1   
    10     4     8 ar  
    11     5     7 1   
    12     5    25 1   
    13     6    26 1   
    14     6    27 1   
    15     7    15 2   
    16     7    28 1   
    17     8    15 1   
    18     8    16 ar  
    19     9    16 ar  
    20     9    17 1   
    21     9    19 ar  
    22    10    11 ar  
    23    10    14 ar  
    24    10    17 1   
    25    11    12 ar  
    26    11    29 1   
    27    12    13 ar  
    28    12    30 1   
    29    13    22 1   
    30    14    31 1   
    31    17    32 1   
    32    18    22 1   
    33    18    33 1   
    34    18    34 1   
    35    20    22 2   
    36    21    22 2   
@<TRIPOS>SUBSTRUCTURE
     1 LD5         1 TEMP              0 ****  ****    0 ROOT
