@<TRIPOS>MOLECULE
LQF
   49    53     1     0     0
SMALL
abcg2


@<TRIPOS>ATOM
      1 C2           4.7230    13.3910    11.6620 cc         1 LQF      -0.112300
      2 C3           5.7760    13.9610    14.2720 cc         1 LQF       0.415000
      3 C11          7.7990    14.7710    13.1420 ch         1 LQF       0.349000
      4 C13          4.1130    13.0560    10.3350 c6         1 LQF       0.232100
      5 C15          6.7560    14.2870    10.5840 c6         1 LQF      -0.037100
      6 C16          6.9920    16.3730    16.1030 cc         1 LQF       0.066300
      7 C18          6.9420    17.2650    17.1220 cd         1 LQF      -0.154000
      8 C19          6.5020    18.2970    15.2050 cc         1 LQF       0.142900
      9 C20          5.9140    14.2320     9.3210 c6         1 LQF       0.163800
     10 C21          6.6270    18.5280    16.5320 cd         1 LQF      -0.190000
     11 C22          7.2520    14.9090    16.0700 c3         1 LQF       0.206500
     12 C24          5.5530    12.3580     6.9720 ca         1 LQF      -0.089300
     13 C25          5.5280    12.8990     5.6910 ca         1 LQF      -0.097500
     14 C26          6.5270    11.4100     7.2800 ca         1 LQF      -0.097500
     15 C27          7.4500    11.0090     6.3260 ca         1 LQF      -0.114500
     16 C28          6.4490    12.4970     4.7300 ca         1 LQF      -0.114500
     17 C29          7.4140    11.5510     5.0450 ca         1 LQF      -0.109000
     18 N1           4.5330    13.3970    14.0770 na         1 LQF      -0.038800
     19 C4           3.9970    13.1080    12.8410 cc         1 LQF      -0.043000
     20 C5           6.4910    14.2310    13.1110 cd         1 LQF      -0.161000
     21 C6           5.9490    13.9540    11.8040 cd         1 LQF       0.028700
     22 N7           2.8110    12.5710    12.9920 nd         1 LQF      -0.112000
     23 N8           2.5620    12.5000    14.3180 nd         1 LQF      -0.337700
     24 N9           6.1300    14.1440    15.5510 nu         1 LQF      -0.959200
     25 C10          3.5710    12.9840    14.9660 cc         1 LQF       0.305700
     26 N12          5.1180    13.0210     9.2970 n3         1 LQF      -0.719600
     27 N14          8.8730    15.1930    13.0780 n1         1 LQF      -0.475000
     28 O17          6.7230    16.9940    14.9350 os         1 LQF      -0.227000
     29 H1           3.3120    13.7840    10.1140 h1         1 LQF       0.055700
     30 H2           3.6290    12.0770    10.3940 h1         1 LQF       0.055700
     31 H3           7.5950    13.5880    10.5070 hc         1 LQF       0.068200
     32 H4           7.1940    15.2830    10.6770 hc         1 LQF       0.068200
     33 H5           7.1080    17.0510    18.1650 ha         1 LQF       0.142000
     34 H6           6.2690    18.9330    14.3660 h4         1 LQF       0.059100
     35 H7           6.5750    14.2470     8.4540 h1         1 LQF       0.041700
     36 H8           5.2790    15.1320     9.2550 h1         1 LQF       0.041700
     37 H9           6.5060    19.4740    17.0330 ha         1 LQF       0.147000
     38 H10          7.4110    14.5710    17.0920 h1         1 LQF       0.083700
     39 H11          8.1630    14.6600    15.5290 h1         1 LQF       0.083700
     40 H12          3.9540    13.6270     7.6250 h1         1 LQF       0.041200
     41 H13          3.8060    11.9500     8.1190 h1         1 LQF       0.041200
     42 H14          4.7820    13.6450     5.4410 ha         1 LQF       0.117500
     43 H15          6.5660    10.9910     8.2780 ha         1 LQF       0.117500
     44 H16          8.2010    10.2720     6.5800 ha         1 LQF       0.111500
     45 H17          6.4160    12.9310     3.7390 ha         1 LQF       0.111500
     46 H18          8.1350    11.2390     4.3010 ha         1 LQF       0.111000
     47 H19          5.4240    13.9660    16.2460 hn         1 LQF       0.492000
     48 H20          3.6420    13.0460    16.0400 h5         1 LQF       0.071800
     49 C23          4.5280    12.7640     8.0000 c3         1 LQF       0.216100
@<TRIPOS>BOND
     1     1     4 1   
     2     1    19 1   
     3     1    21 2   
     4     2    18 1   
     5     2    20 2   
     6     2    24 1   
     7     3    20 1   
     8     3    27 3   
     9     4    26 1   
    10     4    29 1   
    11     4    30 1   
    12     5     9 1   
    13     5    21 1   
    14     5    31 1   
    15     5    32 1   
    16     6     7 2   
    17     6    11 1   
    18     6    28 1   
    19     7    10 1   
    20     7    33 1   
    21     8    10 2   
    22     8    28 1   
    23     8    34 1   
    24     9    26 1   
    25     9    35 1   
    26     9    36 1   
    27    10    37 1   
    28    11    24 1   
    29    11    38 1   
    30    11    39 1   
    31    12    13 ar  
    32    12    14 ar  
    33    12    49 1   
    34    13    16 ar  
    35    13    42 1   
    36    14    15 ar  
    37    14    43 1   
    38    15    17 ar  
    39    15    44 1   
    40    16    17 ar  
    41    16    45 1   
    42    17    46 1   
    43    18    19 1   
    44    18    25 1   
    45    19    22 2   
    46    20    21 1   
    47    22    23 1   
    48    23    25 2   
    49    24    47 1   
    50    25    48 1   
    51    26    49 1   
    52    40    49 1   
    53    41    49 1   
@<TRIPOS>SUBSTRUCTURE
     1 LQF         1 TEMP              0 ****  ****    0 ROOT
