@<TRIPOS>MOLECULE
K0D
   28    29     1     0     0
SMALL
abcg2


@<TRIPOS>ATOM
      1 N1         -24.0660    26.0570   -57.5750 nc         1 K0D      -0.523100
      2 C4         -22.3600    32.0840   -57.3230 c3         1 K0D      -0.097100
      3 C5         -22.5360    31.4750   -54.9540 c6         1 K0D       0.141600
      4 C6         -22.0570    29.1740   -57.7690 c          1 K0D       0.547600
      5 C7         -22.5880    27.7740   -57.8600 cd         1 K0D       0.187500
      6 C8         -23.7720    27.2810   -57.2350 cd         1 K0D       0.262900
      7 N          -22.0390    29.7040   -56.5230 n          1 K0D      -0.409800
      8 O          -22.1860    30.6550   -53.8710 os         1 K0D      -0.443000
      9 C1         -22.4710    29.2980   -54.1360 c6         1 K0D       0.158300
     10 C2         -21.7090    28.8640   -55.3730 c6         1 K0D       0.059000
     11 C3         -21.8180    31.1340   -56.2630 c6         1 K0D       0.080700
     12 N2         -22.0290    26.9050   -58.6610 nc         1 K0D      -0.481100
     13 O1         -21.7570    29.7480   -58.7970 o          1 K0D      -0.542100
     14 S          -22.9200    25.5420   -58.6200 ss         1 K0D       0.458200
     15 H1         -22.3550    33.0940   -56.9100 hc         1 K0D       0.051700
     16 H2         -21.7660    32.0970   -58.2300 hc         1 K0D       0.051700
     17 H3         -23.3910    31.8410   -57.5830 hc         1 K0D       0.051700
     18 H4         -22.2840    32.4990   -54.6760 h1         1 K0D       0.053700
     19 H5         -23.6200    31.4310   -55.1380 h1         1 K0D       0.053700
     20 H6         -24.4000    27.8340   -56.5480 h4         1 K0D       0.068100
     21 H10        -23.5490    29.1780   -54.3300 h1         1 K0D       0.040700
     22 H11        -21.9150    27.8170   -55.5830 h1         1 K0D       0.057700
     23 H12        -20.6310    28.9400   -55.1770 h1         1 K0D       0.057700
     24 H13        -20.7410    31.3030   -56.1320 h1         1 K0D       0.057700
     25 C          -22.0800    28.4750   -52.9280 c3         1 K0D      -0.090100
     26 H7         -22.6130    28.8130   -52.0390 hc         1 K0D       0.049033
     27 H8         -22.3330    27.4270   -53.0890 hc         1 K0D       0.049033
     28 H9         -21.0080    28.5400   -52.7340 hc         1 K0D       0.049033
@<TRIPOS>BOND
     1     1     6 2   
     2     1    14 1   
     3     2    11 1   
     4     2    15 1   
     5     2    16 1   
     6     2    17 1   
     7     3     8 1   
     8     3    11 1   
     9     3    18 1   
    10     3    19 1   
    11     4     5 1   
    12     4     7 1   
    13     4    13 2   
    14     5     6 1   
    15     5    12 2   
    16     6    20 1   
    17     7    10 1   
    18     7    11 1   
    19     8     9 1   
    20     9    10 1   
    21     9    21 1   
    22     9    25 1   
    23    10    22 1   
    24    10    23 1   
    25    11    24 1   
    26    12    14 1   
    27    25    26 1   
    28    25    27 1   
    29    25    28 1   
@<TRIPOS>SUBSTRUCTURE
     1 K0D         1 TEMP              0 ****  ****    0 ROOT
