@<TRIPOS>MOLECULE
KD0
   32    31     1     0     0
SMALL
abcg2


@<TRIPOS>ATOM
      1 O4P         30.2970    30.0670    11.4150 o          1 KD0      -0.929500
      2 P           31.5090    29.2300    11.0280 p5         1 KD0       1.278900
      3 O2P         31.3560    28.4130     9.7470 o          1 KD0      -0.929500
      4 O3P         32.1720    28.4760    12.1780 o          1 KD0      -0.929500
      5 O1P         32.6310    30.4680    10.6270 os         1 KD0      -0.578400
      6 C8          33.8310    30.0840    10.0390 c3         1 KD0       0.237600
      7 C7          34.9210    31.1040    10.3320 c3         1 KD0       0.114300
      8 O7          35.2250    31.1670    11.7130 oh         1 KD0      -0.735000
      9 C6          36.1680    30.8190     9.4720 c3         1 KD0       0.092300
     10 O6          35.9150    31.1560     8.1220 oh         1 KD0      -0.726000
     11 C5          37.4320    31.4950    10.0170 c3         1 KD0       0.107300
     12 O5          37.2210    32.8660    10.2900 oh         1 KD0      -0.743000
     13 C4          38.5980    31.4310     9.0190 c3         1 KD0       0.184300
     14 O4          38.7410    30.1430     8.4610 oh         1 KD0      -0.723000
     15 C3          39.9070    31.7670     9.7070 c3         1 KD0      -0.182400
     16 C1          41.0700    31.9660     8.7640 c          1 KD0       0.450100
     17 O3          40.9110    32.2140     7.5900 o          1 KD0      -0.580100
     18 C2          42.4890    31.9030     9.3800 c          1 KD0       0.649000
     19 O1          43.3930    31.5170     8.6250 o          1 KD0      -0.718000
     20 O2          42.5560    32.2630    10.5690 o          1 KD0      -0.718000
     21 H8          34.1890    29.1070    10.4070 h1         1 KD0      -0.003300
     22 H8A         33.7390    29.9770     8.9490 h1         1 KD0      -0.003300
     23 H7          34.5480    32.1030    10.0740 h1         1 KD0       0.060700
     24 HO7         35.4570    30.2820    12.0160 ho         1 KD0       0.502000
     25 H6          36.3480    29.7370     9.4760 h1         1 KD0       0.076700
     26 HO6         35.8270    32.1140     8.0610 ho         1 KD0       0.496000
     27 H5          37.7270    30.9530    10.9260 h1         1 KD0       0.042700
     28 HO5         36.7140    32.9240    11.1060 ho         1 KD0       0.519000
     29 H4          38.4070    32.1780     8.2380 h1         1 KD0       0.043700
     30 HO4         38.0580    30.0320     7.7920 ho         1 KD0       0.505000
     31 H3          39.8020    32.6860    10.2910 hc         1 KD0       0.069700
     32 H3A         40.1560    30.9920    10.4380 hc         1 KD0       0.069700
@<TRIPOS>BOND
     1     1     2 1   
     2     2     3 1   
     3     2     4 1   
     4     2     5 1   
     5     5     6 1   
     6     6     7 1   
     7     6    21 1   
     8     6    22 1   
     9     7     8 1   
    10     7     9 1   
    11     7    23 1   
    12     8    24 1   
    13     9    10 1   
    14     9    11 1   
    15     9    25 1   
    16    10    26 1   
    17    11    12 1   
    18    11    13 1   
    19    11    27 1   
    20    12    28 1   
    21    13    14 1   
    22    13    15 1   
    23    13    29 1   
    24    14    30 1   
    25    15    16 1   
    26    15    31 1   
    27    15    32 1   
    28    16    17 2   
    29    16    18 1   
    30    18    19 1   
    31    18    20 1   
@<TRIPOS>SUBSTRUCTURE
     1 KD0         1 TEMP              0 ****  ****    0 ROOT
