@<TRIPOS>MOLECULE
KD2
   63    64     1     0     0
SMALL
abcg2


@<TRIPOS>ATOM
      1 C1          43.7460   -33.1080    44.4300 c6         1 KD2       0.453300
      2 O1          44.8340   -32.3080    44.6380 os         1 KD2      -0.610400
      3 C2          43.9790   -34.4550    45.1240 c6         1 KD2       0.027700
      4 C3          45.1140   -35.2170    44.4370 c6         1 KD2       0.115300
      5 O3          45.2700   -36.5170    44.9630 oh         1 KD2      -0.691000
      6 C4          44.8060   -35.3610    42.9520 c6         1 KD2       0.138300
      7 O4          45.8850   -35.9320    42.2490 oh         1 KD2      -0.734000
      8 C5          44.5250   -33.9800    42.3570 c6         1 KD2       0.190300
      9 O5          43.4730   -33.3610    43.0630 os         1 KD2      -0.448000
     10 C6          44.1480   -34.0080    40.8910 c3         1 KD2       0.177600
     11 O6          43.0690   -34.8970    40.6930 os         1 KD2      -0.441000
     12 OAA         43.3010   -30.2330    44.6300 o          1 KD2      -0.915500
     13 PAB         44.7550   -30.5810    44.3420 p5         1 KD2       1.276900
     14 OAC         45.7700   -30.0850    45.3600 o          1 KD2      -0.915500
     15 OAD         45.1780   -30.4280    42.8870 o          1 KD2      -0.915500
     16 N2          44.2540   -34.2730    46.5280 ns         1 KD2      -0.464900
     17 CAJ         43.5380   -34.8250    47.5260 c          1 KD2       0.591100
     18 OBK         42.5670   -35.5460    47.3430 o          1 KD2      -0.648100
     19 CAK         44.0220   -34.4990    48.9190 c3         1 KD2      -0.178100
     20 CAS         42.6000   -35.0000    39.4020 c6         1 KD2       0.399300
     21 OAT         41.5450   -34.0960    39.2460 os         1 KD2      -0.460000
     22 CAU         40.9850   -34.0870    37.9440 c6         1 KD2       0.144300
     23 CAV         39.9750   -32.9630    37.9070 c3         1 KD2       0.146600
     24 OAW         40.6570   -31.7380    38.0820 oh         1 KD2      -0.733000
     25 CAX         40.3670   -35.4550    37.6010 c6         1 KD2       0.252300
     26 OAY         39.9200   -35.4690    36.2860 os         1 KD2      -0.582400
     27 PAZ         38.2520   -35.6840    35.8750 p5         1 KD2       1.281900
     28 OBB         37.6440   -34.2860    35.9750 o          1 KD2      -0.923167
     29 OBC         38.3930   -36.2130    34.4540 o          1 KD2      -0.923167
     30 OBA         37.7090   -36.6760    36.8970 o          1 KD2      -0.923167
     31 CBD         41.4530   -36.5200    37.7810 c6         1 KD2       0.143300
     32 OBE         40.9050   -37.7960    37.5780 oh         1 KD2      -0.593000
     33 CBF         42.0990   -36.4220    39.1640 c6         1 KD2       0.014700
     34 NBG         43.1800   -37.3710    39.2760 ns         1 KD2      -0.489900
     35 CBH         43.3920   -38.1660    40.3470 c          1 KD2       0.606100
     36 OBJ         42.6110   -38.2570    41.2810 o          1 KD2      -0.597100
     37 CBI         44.6900   -38.9360    40.3150 c3         1 KD2      -0.184100
     38 H1          42.8220   -32.6550    44.8080 h2         1 KD2       0.088700
     39 H2          43.0640   -35.0460    45.0440 h1         1 KD2       0.082700
     40 H3          46.0450   -34.6430    44.5420 h1         1 KD2       0.057700
     41 H4          45.6780   -36.4500    45.8310 ho         1 KD2       0.419000
     42 H5          43.9030   -35.9810    42.8550 h1         1 KD2       0.072700
     43 H6          46.1150   -36.7610    42.6810 ho         1 KD2       0.482000
     44 H7          45.4410   -33.3790    42.4210 h1         1 KD2       0.084700
     45 H8          45.0170   -34.3220    40.3010 h1         1 KD2       0.037700
     46 H9          43.8920   -32.9890    40.5780 h1         1 KD2       0.037700
     47 H12         45.0070   -33.6440    46.7610 hn         1 KD2       0.333500
     48 H13         44.2960   -35.4230    49.4280 hc         1 KD2       0.038033
     49 H14         44.8790   -33.8280    48.9410 hc         1 KD2       0.038033
     50 H15         43.2110   -34.0460    49.4880 hc         1 KD2       0.038033
     51 H16         43.3990   -34.7760    38.6690 h2         1 KD2      -0.012300
     52 H17         41.7730   -33.8760    37.2000 h1         1 KD2       0.020700
     53 H18         39.4350   -33.0060    36.9600 h1         1 KD2       0.069700
     54 H19         39.2350   -33.1300    38.7030 h1         1 KD2       0.069700
     55 H20         40.0280   -31.0270    37.9340 ho         1 KD2       0.472000
     56 H21         39.5590   -35.6620    38.3200 h1         1 KD2       0.063700
     57 H24         42.2350   -36.3100    37.0290 h1         1 KD2       0.000700
     58 H25         41.6140   -38.4400    37.6790 ho         1 KD2       0.388000
     59 H26         41.3540   -36.6600    39.9270 h1         1 KD2       0.118700
     60 H27         43.9080   -37.3120    38.5790 hn         1 KD2       0.285500
     61 H28         44.5500   -39.9210    40.7550 hc         1 KD2       0.040700
     62 H29         45.1000   -39.0500    39.3130 hc         1 KD2       0.040700
     63 H30         45.4260   -38.4030    40.9180 hc         1 KD2       0.040700
@<TRIPOS>BOND
     1     1     2 1   
     2     1     3 1   
     3     1     9 1   
     4     1    38 1   
     5     2    13 1   
     6     3     4 1   
     7     3    16 1   
     8     3    39 1   
     9     4     5 1   
    10     4     6 1   
    11     4    40 1   
    12     5    41 1   
    13     6     7 1   
    14     6     8 1   
    15     6    42 1   
    16     7    43 1   
    17     8     9 1   
    18     8    10 1   
    19     8    44 1   
    20    10    11 1   
    21    10    45 1   
    22    10    46 1   
    23    11    20 1   
    24    12    13 1   
    25    13    14 1   
    26    13    15 1   
    27    16    17 1   
    28    16    47 1   
    29    17    18 2   
    30    17    19 1   
    31    19    48 1   
    32    19    49 1   
    33    19    50 1   
    34    20    21 1   
    35    20    33 1   
    36    20    51 1   
    37    21    22 1   
    38    22    23 1   
    39    22    25 1   
    40    22    52 1   
    41    23    24 1   
    42    23    53 1   
    43    23    54 1   
    44    24    55 1   
    45    25    26 1   
    46    25    31 1   
    47    25    56 1   
    48    26    27 1   
    49    27    28 1   
    50    27    29 1   
    51    27    30 1   
    52    31    32 1   
    53    31    33 1   
    54    31    57 1   
    55    32    58 1   
    56    33    34 1   
    57    33    59 1   
    58    34    35 1   
    59    34    60 1   
    60    35    36 2   
    61    35    37 1   
    62    37    61 1   
    63    37    62 1   
    64    37    63 1   
@<TRIPOS>SUBSTRUCTURE
     1 KD2         1 TEMP              0 ****  ****    0 ROOT
