@<TRIPOS>MOLECULE
KDP
   24    23     1     0     0
SMALL
abcg2


@<TRIPOS>ATOM
      1 OAH         14.9080     0.4740    -6.5420 o          1 KDP      -0.914167
      2 PAP         15.4430     1.6440    -5.7350 p5         1 KDP       1.302900
      3 OAC         15.0150     3.0170    -6.2100 o          1 KDP      -0.914167
      4 OAG         16.9550     1.5350    -5.4660 o          1 KDP      -0.914167
      5 OAK         14.7310     1.5400    -4.2240 os         1 KDP      -0.600400
      6 CAI         14.7730     0.3210    -3.4940 c3         1 KDP       0.208600
      7 CAN         16.0490     0.1190    -2.6780 c3         1 KDP       0.128300
      8 OAD         17.1870    -0.1370    -3.4970 oh         1 KDP      -0.800000
      9 CAO         16.3720     1.2890    -1.7360 c3         1 KDP       0.152300
     10 OAE         17.6840     1.0880    -1.1940 oh         1 KDP      -0.703000
     11 CAJ         15.4010     1.3980    -0.5760 c3         1 KDP      -0.169400
     12 CAM         15.6290     2.6000     0.3170 c          1 KDP       0.475100
     13 CAL         15.1970     2.4510     1.7790 c          1 KDP       0.645000
     14 OAA         14.0170     2.7800     2.0340 o          1 KDP      -0.743000
     15 OAF         16.0740     2.0080     2.5520 o          1 KDP      -0.743000
     16 OXT         16.1060     3.6460    -0.0890 o          1 KDP      -0.582100
     17 HAI1        13.9160     0.3220    -2.8190 h1         1 KDP      -0.002300
     18 HAI2        14.6600    -0.5280    -4.1720 h1         1 KDP      -0.002300
     19 HAN         15.8980    -0.7770    -2.0690 h1         1 KDP      -0.003300
     20 HAD         17.1650     0.5100    -4.2700 ho         1 KDP       0.544000
     21 HAO         16.3600     2.2160    -2.3130 h1         1 KDP       0.087700
     22 HAE         18.1810     0.6750    -1.9150 ho         1 KDP       0.447000
     23 HAJ1        14.3780     1.4960    -0.9490 hc         1 KDP       0.050200
     24 HAJ2        15.4270     0.4890     0.0270 hc         1 KDP       0.050200
@<TRIPOS>BOND
     1     1     2 1   
     2     2     3 1   
     3     2     4 1   
     4     2     5 1   
     5     5     6 1   
     6     6     7 1   
     7     6    17 1   
     8     6    18 1   
     9     7     8 1   
    10     7     9 1   
    11     7    19 1   
    12     8    20 1   
    13     9    10 1   
    14     9    11 1   
    15     9    21 1   
    16    10    22 1   
    17    11    12 1   
    18    11    23 1   
    19    11    24 1   
    20    12    13 1   
    21    12    16 2   
    22    13    14 1   
    23    13    15 1   
@<TRIPOS>SUBSTRUCTURE
     1 KDP         1 TEMP              0 ****  ****    0 ROOT
