@<TRIPOS>MOLECULE
KWF
   94   103     1     0     0
SMALL
abcg2


@<TRIPOS>ATOM
      1 C38          0.0800   -28.5720   -21.3190 ca         1 KWF       0.417900
      2 C40          5.2930   -29.2850   -21.5400 c5         1 KWF       0.104300
      3 C36          1.5620   -26.8200   -21.1860 ca         1 KWF       0.155900
      4 C33          1.0410   -29.2960   -22.0570 ca         1 KWF      -0.208800
      5 C30         -2.2720   -35.9850   -24.3020 ca         1 KWF      -0.093000
      6 C25         -5.4160   -37.9640   -24.0880 ca         1 KWF      -0.099000
      7 C26         -6.6730   -37.8460   -23.5590 ca         1 KWF      -0.126000
      8 C28         -6.1470   -35.6570   -22.6930 ca         1 KWF      -0.091000
      9 C27         -7.0410   -36.6810   -22.8530 ca         1 KWF      -0.127000
     10 C10          6.0050   -32.5050   -23.3420 c3         1 KWF       0.238600
     11 C02          5.4310   -35.3900   -20.2740 c5         1 KWF       0.112300
     12 C03          5.3580   -35.0630   -18.7740 c5         1 KWF       0.120300
     13 C04          6.1590   -33.8550   -18.3340 c3         1 KWF       0.238600
     14 C08          5.6540   -30.7690   -21.4520 c5         1 KWF       0.174300
     15 C09          6.0460   -31.0640   -22.8980 c5         1 KWF       0.145300
     16 C13          4.5880   -29.2500   -22.8980 c5         1 KWF       0.315300
     17 C15          2.4920   -30.6720   -23.0650 cc         1 KWF      -0.105100
     18 C16          1.1830   -30.5890   -22.6700 cd         1 KWF      -0.095400
     19 C17          0.1990   -31.6430   -22.9110 ca         1 KWF       0.029200
     20 C18          0.5920   -32.9840   -22.9010 ca         1 KWF      -0.100500
     21 C19         -0.3090   -33.9980   -23.1640 ca         1 KWF      -0.088500
     22 C20         -1.6530   -33.7180   -23.4160 cp         1 KWF      -0.087000
     23 C21         -2.6310   -34.8030   -23.6040 cp         1 KWF       0.009000
     24 C22         -3.9000   -34.7080   -23.0820 ca         1 KWF      -0.111000
     25 C23         -4.8420   -35.7480   -23.2340 ca         1 KWF      -0.039000
     26 C24         -4.4720   -36.9230   -23.9370 ca         1 KWF      -0.051000
     27 C29         -3.1620   -37.0080   -24.4650 ca         1 KWF      -0.125000
     28 C31         -2.0440   -32.3790   -23.4450 ca         1 KWF      -0.088500
     29 C32         -1.1350   -31.3610   -23.2090 ca         1 KWF      -0.100500
     30 C34          2.2870   -28.6610   -22.1590 ca         1 KWF       0.131500
     31 C45          3.2180   -34.8970   -19.6620 c5         1 KWF       0.307300
     32 C47          2.2900   -32.5760   -19.2860 cc         1 KWF       0.443400
     33 C49          0.2100   -32.9110   -19.5590 cd         1 KWF       0.107500
     34 C50          0.8280   -34.1170   -19.7440 cc         1 KWF       0.207000
     35 C52         -1.2110   -35.1210   -20.1800 cc         1 KWF       0.897100
     36 C55         -1.2220   -32.8190   -19.7180 c          1 KWF       0.680000
     37 C57          4.2150   -34.6300   -20.7900 c5         1 KWF       0.211300
     38 N14          3.1600   -29.5180   -22.7500 na         1 KWF      -0.200400
     39 N35          2.5870   -27.4290   -21.7470 nb         1 KWF      -0.227000
     40 N37          0.3560   -27.3200   -20.9400 nb         1 KWF      -0.327000
     41 N39         -1.1240   -29.0660   -20.9700 nv         1 KWF      -1.052900
     42 N46          2.1580   -33.9190   -19.5750 na         1 KWF      -0.181500
     43 N48          1.1510   -31.9560   -19.2690 nd         1 KWF      -0.618000
     44 N51          0.1450   -35.2450   -20.0610 na         1 KWF      -0.904200
     45 N53         -1.8930   -36.2450   -20.4580 nv         1 KWF      -1.053200
     46 N54         -1.8570   -34.0020   -20.0000 nd         1 KWF      -0.808100
     47 O01          5.2230   -36.7580   -20.5140 oh         1 KWF      -0.698000
     48 O05          5.6970   -32.7120   -19.0120 os         1 KWF      -0.623400
     49 O07          6.7280   -31.0550   -20.5950 os         1 KWF      -0.586400
     50 O11          4.7120   -33.0500   -23.1910 os         1 KWF      -0.626400
     51 O12          5.1710   -30.2490   -23.6800 os         1 KWF      -0.451000
     52 O41          6.4340   -28.4760   -21.6430 oh         1 KWF      -0.734000
     53 O44          3.9650   -34.8840   -18.4840 os         1 KWF      -0.457000
     54 O56         -1.8560   -31.7710   -19.6140 o          1 KWF      -0.603100
     55 O58          3.6730   -35.0190   -22.0130 os         1 KWF      -0.573400
     56 P06          6.4670   -31.2590   -18.9710 p5         1 KWF       1.399800
     57 P59          4.4290   -34.6580   -23.4410 p5         1 KWF       1.406800
     58 H1           4.6390   -28.9630   -20.7260 h1         1 KWF       0.106700
     59 H2           1.7240   -25.7960   -20.8650 h5         1 KWF       0.021100
     60 H3          -1.2810   -36.0690   -24.7300 ha         1 KWF       0.135000
     61 H4          -5.1300   -38.8580   -24.6290 ha         1 KWF       0.103000
     62 H5          -7.3900   -38.6480   -23.6780 ha         1 KWF       0.097000
     63 H6          -6.4290   -34.7630   -22.1500 ha         1 KWF       0.115000
     64 H7          -8.0370   -36.6000   -22.4370 ha         1 KWF       0.100000
     65 H8           6.7470   -33.0440   -22.7450 h1         1 KWF       0.031700
     66 H9           6.3340   -32.5630   -24.3860 h1         1 KWF       0.031700
     67 H10          6.3680   -35.0350   -20.7180 h1         1 KWF       0.086700
     68 H11          5.7300   -35.9140   -18.1920 h1         1 KWF       0.037700
     69 H12          6.0600   -33.7340   -17.2500 h1         1 KWF       0.026700
     70 H13          7.2150   -34.0570   -18.5410 h1         1 KWF       0.026700
     71 H14          4.7530   -31.3330   -21.1840 h1         1 KWF       0.069700
     72 H15          7.0810   -30.7300   -23.0530 h1         1 KWF       0.055700
     73 H16          4.6970   -28.2750   -23.3800 h2         1 KWF       0.094700
     74 H17          2.9900   -31.4790   -23.5720 h4         1 KWF       0.267000
     75 H18          1.6130   -33.2410   -22.6510 ha         1 KWF       0.133500
     76 H19          0.0370   -35.0240   -23.1290 ha         1 KWF       0.103500
     77 H20         -4.1900   -33.8310   -22.5140 ha         1 KWF       0.134000
     78 H21         -2.8720   -37.8980   -25.0110 ha         1 KWF       0.106000
     79 H22         -3.0700   -32.1220   -23.6780 ha         1 KWF       0.103500
     80 H23         -1.4690   -30.3340   -23.2760 ha         1 KWF       0.133500
     81 H24          2.7420   -35.8720   -19.8170 h2         1 KWF       0.058700
     82 H25          3.2550   -32.1340   -19.0900 h5         1 KWF       0.106100
     83 H26          4.4620   -33.5660   -20.7910 h1         1 KWF       0.090700
     84 H27         -1.6480   -28.5070   -20.3150 hn         1 KWF       0.491000
     85 H28         -1.2430   -30.0630   -20.8510 hn         1 KWF       0.491000
     86 H29          0.6040   -36.1290   -20.2290 hn         1 KWF       0.509000
     87 H30         -2.8540   -36.1300   -20.7340 hn         1 KWF       0.490500
     88 H31         -1.4270   -37.0590   -20.8250 hn         1 KWF       0.490500
     89 H32          5.9820   -37.2460   -20.1790 ho         1 KWF       0.485000
     90 H33          7.0480   -28.7270   -20.9450 ho         1 KWF       0.527000
     91 O42          5.4620   -30.2520   -18.5090 o          1 KWF      -0.812000
     92 O43          7.8180   -31.4040   -18.3570 o          1 KWF      -0.812000
     93 O60          5.7420   -35.3650   -23.5410 o          1 KWF      -0.813500
     94 O61          3.3620   -34.8000   -24.4750 o          1 KWF      -0.813500
@<TRIPOS>BOND
     1     1     4 ar  
     2     1    40 ar  
     3     1    41 1   
     4     2    14 1   
     5     2    16 1   
     6     2    52 1   
     7     2    58 1   
     8     3    39 ar  
     9     3    40 ar  
    10     3    59 1   
    11     4    18 1   
    12     4    30 ar  
    13     5    23 ar  
    14     5    27 ar  
    15     5    60 1   
    16     6     7 ar  
    17     6    26 ar  
    18     6    61 1   
    19     7     9 ar  
    20     7    62 1   
    21     8     9 ar  
    22     8    25 ar  
    23     8    63 1   
    24     9    64 1   
    25    10    15 1   
    26    10    50 1   
    27    10    65 1   
    28    10    66 1   
    29    11    12 1   
    30    11    37 1   
    31    11    47 1   
    32    11    67 1   
    33    12    13 1   
    34    12    53 1   
    35    12    68 1   
    36    13    48 1   
    37    13    69 1   
    38    13    70 1   
    39    14    15 1   
    40    14    49 1   
    41    14    71 1   
    42    15    51 1   
    43    15    72 1   
    44    16    38 1   
    45    16    51 1   
    46    16    73 1   
    47    17    18 2   
    48    17    38 1   
    49    17    74 1   
    50    18    19 1   
    51    19    20 ar  
    52    19    29 ar  
    53    20    21 ar  
    54    20    75 1   
    55    21    22 ar  
    56    21    76 1   
    57    22    23 1   
    58    22    28 ar  
    59    23    24 ar  
    60    24    25 ar  
    61    24    77 1   
    62    25    26 ar  
    63    26    27 ar  
    64    27    78 1   
    65    28    29 ar  
    66    28    79 1   
    67    29    80 1   
    68    30    38 1   
    69    30    39 ar  
    70    31    37 1   
    71    31    42 1   
    72    31    53 1   
    73    31    81 1   
    74    32    42 1   
    75    32    43 2   
    76    32    82 1   
    77    33    34 2   
    78    33    36 1   
    79    33    43 1   
    80    34    42 1   
    81    34    44 1   
    82    35    44 1   
    83    35    45 1   
    84    35    46 2   
    85    36    46 1   
    86    36    54 2   
    87    37    55 1   
    88    37    83 1   
    89    41    84 1   
    90    41    85 1   
    91    44    86 1   
    92    45    87 1   
    93    45    88 1   
    94    47    89 1   
    95    48    56 1   
    96    49    56 1   
    97    50    57 1   
    98    52    90 1   
    99    55    57 1   
   100    56    91 1   
   101    56    92 1   
   102    57    93 1   
   103    57    94 1   
@<TRIPOS>SUBSTRUCTURE
     1 KWF         1 TEMP              0 ****  ****    0 ROOT
