@<TRIPOS>MOLECULE
KWI
   44    47     1     0     0
SMALL
abcg2


@<TRIPOS>ATOM
      1 C10          1.8120    -1.3330    84.5310 c3         1 KWI       0.098300
      2 C13          1.4350    -3.3920    82.1160 c          1 KWI       0.636700
      3 C21          3.9370    -6.8620    82.7340 c3         1 KWI       0.066900
      4 C22         -3.8960    -0.5240    85.3430 ca         1 KWI      -0.101300
      5 C24         -6.1530     0.3800    85.2860 ca         1 KWI      -0.100000
      6 C26         -4.6170     0.8930    83.5160 ca         1 KWI      -0.104000
      7 C1           0.1020    -3.4330    82.7760 ca         1 KWI      -0.169600
      8 C2          -0.8640    -4.3220    82.2880 ca         1 KWI      -0.088000
      9 C3          -2.1670    -4.3140    82.7590 ca         1 KWI      -0.117000
     10 C4          -2.5600    -3.4240    83.7530 ca         1 KWI      -0.082000
     11 C5          -1.6020    -2.5690    84.2540 ca         1 KWI      -0.006400
     12 C6          -0.2830    -2.5520    83.7810 ca         1 KWI       0.064600
     13 C8          -0.4640    -1.0270    85.4380 c          1 KWI       0.592000
     14 C12         -2.8530    -1.3570    86.0470 c3         1 KWI       0.164300
     15 C16          3.2050    -4.8770    81.3590 cc         1 KWI       0.515400
     16 C23         -5.1650    -0.3750    85.8980 ca         1 KWI       0.121000
     17 C25         -5.8750     1.0160    84.0860 ca         1 KWI      -0.098000
     18 C27         -3.6410     0.1290    84.1420 ca         1 KWI      -0.085000
     19 N7          -1.6880    -1.6230    85.2500 n          1 KWI      -0.294000
     20 N9           0.3940    -1.6090    84.5260 n          1 KWI      -0.287000
     21 N15          2.0460    -4.6210    82.0450 ns         1 KWI      -0.496400
     22 N17          3.6960    -4.2480    80.3190 nd         1 KWI      -0.377000
     23 N18          4.8200    -4.8950    80.0120 nd         1 KWI      -0.029000
     24 N19          5.0260    -5.8740    80.7950 nc         1 KWI      -0.204800
     25 N20          4.0260    -5.8860    81.6700 na         1 KWI      -0.117700
     26 O11         -0.1900    -0.1680    86.2510 o          1 KWI      -0.543000
     27 O14          1.9190    -2.3840    81.6580 o          1 KWI      -0.506100
     28 CL          -5.5330    -1.1470    87.4100 cl         1 KWI      -0.209000
     29 H1           2.0470    -0.7640    85.4260 h1         1 KWI       0.060033
     30 H2           2.3790    -2.2620    84.5610 h1         1 KWI       0.060033
     31 H3           2.1120    -0.7570    83.6590 h1         1 KWI       0.060033
     32 H4           4.8510    -7.4470    82.7310 h1         1 KWI       0.064700
     33 H5           3.8360    -6.3580    83.6920 h1         1 KWI       0.064700
     34 H6           3.0870    -7.5230    82.5760 h1         1 KWI       0.064700
     35 H7          -7.1290     0.4690    85.7440 ha         1 KWI       0.131000
     36 H8          -4.3910     1.3870    82.5810 ha         1 KWI       0.122000
     37 H9          -0.5970    -5.0110    81.4960 ha         1 KWI       0.122000
     38 H10         -2.8890    -5.0020    82.3410 ha         1 KWI       0.125000
     39 H11         -3.5770    -3.4120    84.1230 ha         1 KWI       0.134000
     40 H12         -3.2810    -2.3120    86.3590 h1         1 KWI       0.081700
     41 H13         -2.5270    -0.8540    86.9600 h1         1 KWI       0.081700
     42 H14         -6.6430     1.6060    83.6030 ha         1 KWI       0.121000
     43 H15         -2.6660     0.0430    83.6810 ha         1 KWI       0.127000
     44 H16          1.6230    -5.3850    82.5540 hn         1 KWI       0.335500
@<TRIPOS>BOND
     1     1    20 1   
     2     1    29 1   
     3     1    30 1   
     4     1    31 1   
     5     2     7 1   
     6     2    21 1   
     7     2    27 2   
     8     3    25 1   
     9     3    32 1   
    10     3    33 1   
    11     3    34 1   
    12     4    14 1   
    13     4    16 ar  
    14     4    18 ar  
    15     5    16 ar  
    16     5    17 ar  
    17     5    35 1   
    18     6    17 ar  
    19     6    18 ar  
    20     6    36 1   
    21     7     8 ar  
    22     7    12 ar  
    23     8     9 ar  
    24     8    37 1   
    25     9    10 ar  
    26     9    38 1   
    27    10    11 ar  
    28    10    39 1   
    29    11    12 ar  
    30    11    19 1   
    31    12    20 1   
    32    13    19 1   
    33    13    20 1   
    34    13    26 2   
    35    14    19 1   
    36    14    40 1   
    37    14    41 1   
    38    15    21 1   
    39    15    22 2   
    40    15    25 1   
    41    16    28 1   
    42    17    42 1   
    43    18    43 1   
    44    21    44 1   
    45    22    23 1   
    46    23    24 2   
    47    24    25 1   
@<TRIPOS>SUBSTRUCTURE
     1 KWI         1 TEMP              0 ****  ****    0 ROOT
