@<TRIPOS>MOLECULE
KXD
   98   107     1     0     0
SMALL
abcg2


@<TRIPOS>ATOM
      1 C10          5.6990   -31.5770    -6.0140 c3         1 KXD       0.236600
      2 C13          4.2850   -28.5390    -4.7500 c5         1 KXD       0.316300
      3 C15          2.2070   -29.9470    -5.1030 cc         1 KXD      -0.113100
      4 C16          0.9340   -30.0120    -4.6030 cd         1 KXD      -0.092400
      5 C17         -0.0390   -31.0190    -5.0240 ca         1 KXD       0.022200
      6 C18         -1.3860   -30.7150    -5.2290 ca         1 KXD      -0.102500
      7 C19         -2.2700   -31.6840    -5.6760 ca         1 KXD      -0.085500
      8 C20         -1.8370   -32.9780    -5.9430 ca         1 KXD      -0.160300
      9 C21         -2.7700   -34.0100    -6.4970 c3         1 KXD       0.223900
     10 C23         -1.8370   -33.7580    -8.6590 ca         1 KXD       0.103100
     11 C24         -1.4360   -32.5270    -9.1040 ca         1 KXD      -0.105000
     12 C25         -0.2530   -32.3890    -9.8570 ca         1 KXD      -0.100000
     13 C26          0.5230   -33.4790   -10.1350 ca         1 KXD      -0.065000
     14 C27          0.1280   -34.7660    -9.7020 ca         1 KXD      -0.009000
     15 C28         -1.0780   -34.9210    -8.9680 ca         1 KXD      -0.049000
     16 C02          5.3090   -35.0130    -3.4980 c5         1 KXD       0.110300
     17 C03          5.2780   -35.0190    -1.9640 c5         1 KXD       0.119300
     18 C04          6.0550   -33.9100    -1.2860 c3         1 KXD       0.233600
     19 C08          5.4490   -30.3220    -3.7670 c5         1 KXD       0.172300
     20 C09          5.7520   -30.2700    -5.2620 c5         1 KXD       0.146300
     21 C29         -1.4810   -36.2220    -8.5820 ca         1 KXD      -0.105000
     22 C30         -0.7060   -37.3100    -8.8790 ca         1 KXD      -0.125000
     23 C31          0.5070   -37.1540    -9.5790 ca         1 KXD      -0.127000
     24 C32          0.9100   -35.9110    -9.9840 ca         1 KXD      -0.061000
     25 C33         -0.4930   -33.2800    -5.7510 ca         1 KXD      -0.085500
     26 C34          0.3900   -32.3210    -5.2900 ca         1 KXD      -0.102500
     27 C35          0.8190   -28.9150    -3.6830 ca         1 KXD      -0.209800
     28 C36          2.0410   -28.2320    -3.7120 ca         1 KXD       0.131500
     29 C38          1.3650   -26.7280    -2.2460 ca         1 KXD       0.156900
     30 C40         -0.1010   -28.4290    -2.7300 ca         1 KXD       0.420900
     31 C42          5.0880   -28.8610    -3.4900 c5         1 KXD       0.102300
     32 C47          3.1020   -34.7650    -2.7370 c5         1 KXD       0.305300
     33 C49          2.1090   -32.6150    -1.8580 cc         1 KXD       0.444400
     34 C51          0.0320   -32.9970    -2.0700 cd         1 KXD       0.108500
     35 C52          0.6810   -34.1110    -2.5260 cc         1 KXD       0.208000
     36 C54         -1.3420   -35.1120    -3.0330 cc         1 KXD       0.897100
     37 C57         -1.4090   -32.9420    -2.1390 c          1 KXD       0.679000
     38 C59          4.0470   -34.2180    -3.8100 c5         1 KXD       0.214300
     39 N14          2.8780   -28.8810    -4.5640 na         1 KXD      -0.202400
     40 N37          2.3520   -27.1350    -3.0190 nb         1 KXD      -0.228000
     41 N39          0.1860   -27.3110    -2.0560 nb         1 KXD      -0.327000
     42 N41         -1.2770   -29.0270    -2.4580 nv         1 KXD      -1.051900
     43 N48          2.0100   -33.8790    -2.4040 na         1 KXD      -0.180500
     44 N50          0.9520   -32.0700    -1.6510 nd         1 KXD      -0.619000
     45 N53          0.0220   -35.1890    -3.0190 na         1 KXD      -0.902200
     46 N55         -1.9970   -36.1950    -3.4830 nv         1 KXD      -1.063200
     47 N56         -2.0170   -34.0770    -2.6120 nd         1 KXD      -0.807100
     48 O01          5.1380   -36.3070    -4.0170 oh         1 KXD      -0.697000
     49 O05          5.5440   -32.6480    -1.6530 os         1 KXD      -0.619400
     50 O07          6.5630   -30.8100    -3.0690 os         1 KXD      -0.583400
     51 O11          4.4350   -32.1920    -5.8930 os         1 KXD      -0.625400
     52 O12          4.8190   -29.3180    -5.7790 os         1 KXD      -0.453000
     53 O22         -2.9730   -33.8630    -7.9140 os         1 KXD      -0.386100
     54 O43          6.2150   -28.0280    -3.4920 oh         1 KXD      -0.733000
     55 O46          3.8920   -34.9720    -1.6040 os         1 KXD      -0.458000
     56 O58         -2.0740   -31.9610    -1.8100 o          1 KXD      -0.599100
     57 O60          3.4780   -34.3710    -5.0740 os         1 KXD      -0.571400
     58 P06          6.4060   -31.2550    -1.4810 p5         1 KXD       1.397800
     59 P61          4.1920   -33.7360    -6.4260 p5         1 KXD       1.406800
     60 H1           6.4960   -32.2060    -5.6080 h1         1 KXD       0.031700
     61 H2           5.9450   -31.3920    -7.0660 h1         1 KXD       0.031700
     62 H3           4.3430   -27.4770    -5.0050 h2         1 KXD       0.093700
     63 H4           2.6710   -30.5890    -5.8310 h4         1 KXD       0.265000
     64 H5          -1.7470   -29.7090    -5.0560 ha         1 KXD       0.130000
     65 H6          -3.3110   -31.4230    -5.8290 ha         1 KXD       0.105500
     66 H7          -3.7640   -33.9220    -6.0600 h1         1 KXD       0.036700
     67 H8          -2.3920   -35.0110    -6.2710 h1         1 KXD       0.036700
     68 H9          -2.0260   -31.6540    -8.8590 ha         1 KXD       0.119000
     69 H10          0.0460   -31.4050   -10.1930 ha         1 KXD       0.109000
     70 H11          1.4440   -33.3720   -10.6950 ha         1 KXD       0.119000
     71 H12          6.2150   -34.5300    -3.8810 h1         1 KXD       0.088700
     72 H13          5.7020   -35.9590    -1.5920 h1         1 KXD       0.037700
     73 H14          5.9920   -34.0450    -0.2010 h1         1 KXD       0.028700
     74 H15          7.1070   -34.0250    -1.5630 h1         1 KXD       0.028700
     75 H16          4.5580   -30.9360    -3.5910 h1         1 KXD       0.066700
     76 H17          6.7710   -29.8870    -5.4000 h1         1 KXD       0.055700
     77 H18         -2.4180   -36.3640    -8.0600 ha         1 KXD       0.103000
     78 H19         -1.0280   -38.2990    -8.5790 ha         1 KXD       0.090000
     79 H20          1.1140   -38.0220    -9.8020 ha         1 KXD       0.100000
     80 H21          1.8350   -35.7880   -10.5340 ha         1 KXD       0.118000
     81 H22         -0.1290   -34.2810    -5.9560 ha         1 KXD       0.105500
     82 H23          1.4230   -32.5900    -5.1180 ha         1 KXD       0.130000
     83 H24          1.5390   -25.8200    -1.6780 h5         1 KXD       0.021100
     84 H25          4.4930   -28.7430    -2.5820 h1         1 KXD       0.110700
     85 H26          2.6570   -35.7040    -3.0870 h2         1 KXD       0.060700
     86 H27          3.0680   -32.1750    -1.6290 h5         1 KXD       0.105100
     87 H28          4.2500   -33.1660    -3.5970 h1         1 KXD       0.087700
     88 H29         -1.7720   -28.6760    -1.6530 hn         1 KXD       0.492000
     89 H30         -1.3920   -30.0180    -2.6150 hn         1 KXD       0.492000
     90 H31          0.5030   -36.0060    -3.3690 hn         1 KXD       0.509000
     91 H32         -2.9850   -36.0970    -3.6460 hn         1 KXD       0.490000
     92 H33         -1.5260   -36.9110    -4.0110 hn         1 KXD       0.490000
     93 H34          5.9190   -36.8280    -3.8040 ho         1 KXD       0.485000
     94 H35          6.8370   -28.3600    -2.8350 ho         1 KXD       0.526000
     95 O44          7.7870   -31.5600    -1.0080 o          1 KXD      -0.812500
     96 O45          5.5010   -30.2810    -0.7990 o          1 KXD      -0.812500
     97 O62          3.1100   -33.7310    -7.4530 o          1 KXD      -0.814000
     98 O63          5.5190   -34.3740    -6.6790 o          1 KXD      -0.814000
@<TRIPOS>BOND
     1     1    20 1   
     2     1    51 1   
     3     1    60 1   
     4     1    61 1   
     5     2    31 1   
     6     2    39 1   
     7     2    52 1   
     8     2    62 1   
     9     3     4 2   
    10     3    39 1   
    11     3    63 1   
    12     4     5 1   
    13     4    27 1   
    14     5     6 ar  
    15     5    26 ar  
    16     6     7 ar  
    17     6    64 1   
    18     7     8 ar  
    19     7    65 1   
    20     8     9 1   
    21     8    25 ar  
    22     9    53 1   
    23     9    66 1   
    24     9    67 1   
    25    10    11 ar  
    26    10    15 ar  
    27    10    53 1   
    28    11    12 ar  
    29    11    68 1   
    30    12    13 ar  
    31    12    69 1   
    32    13    14 ar  
    33    13    70 1   
    34    14    15 ar  
    35    14    24 ar  
    36    15    21 ar  
    37    16    17 1   
    38    16    38 1   
    39    16    48 1   
    40    16    71 1   
    41    17    18 1   
    42    17    55 1   
    43    17    72 1   
    44    18    49 1   
    45    18    73 1   
    46    18    74 1   
    47    19    20 1   
    48    19    31 1   
    49    19    50 1   
    50    19    75 1   
    51    20    52 1   
    52    20    76 1   
    53    21    22 ar  
    54    21    77 1   
    55    22    23 ar  
    56    22    78 1   
    57    23    24 ar  
    58    23    79 1   
    59    24    80 1   
    60    25    26 ar  
    61    25    81 1   
    62    26    82 1   
    63    27    28 ar  
    64    27    30 ar  
    65    28    39 1   
    66    28    40 ar  
    67    29    40 ar  
    68    29    41 ar  
    69    29    83 1   
    70    30    41 ar  
    71    30    42 1   
    72    31    54 1   
    73    31    84 1   
    74    32    38 1   
    75    32    43 1   
    76    32    55 1   
    77    32    85 1   
    78    33    43 1   
    79    33    44 2   
    80    33    86 1   
    81    34    35 2   
    82    34    37 1   
    83    34    44 1   
    84    35    43 1   
    85    35    45 1   
    86    36    45 1   
    87    36    46 1   
    88    36    47 2   
    89    37    47 1   
    90    37    56 2   
    91    38    57 1   
    92    38    87 1   
    93    42    88 1   
    94    42    89 1   
    95    45    90 1   
    96    46    91 1   
    97    46    92 1   
    98    48    93 1   
    99    49    58 1   
   100    50    58 1   
   101    51    59 1   
   102    54    94 1   
   103    57    59 1   
   104    58    95 1   
   105    58    96 1   
   106    59    97 1   
   107    59    98 1   
@<TRIPOS>SUBSTRUCTURE
     1 KXD         1 TEMP              0 ****  ****    0 ROOT
