@<TRIPOS>MOLECULE
D2X
   41    42     1     0     0
SMALL
abcg2


@<TRIPOS>ATOM
      1 OAJ         -2.8110   -45.0050    11.8640 o          1 D2X      -0.919500
      2 PAW         -1.7480   -44.0470    12.3910 p5         1 D2X       1.337900
      3 OAZ         -1.6730   -43.9490    13.9060 o          1 D2X      -0.919500
      4 OAX         -0.4110   -44.1120    11.6720 o          1 D2X      -0.919500
      5 OAV         -2.4170   -42.4750    11.9900 os         1 D2X      -0.716800
      6 PAU         -2.0900   -41.4010    10.8580 p5         1 D2X       1.458800
      7 OAI         -3.2030   -40.3730    10.8800 o          1 D2X      -0.846000
      8 OAY         -0.6760   -40.9050    10.8650 o          1 D2X      -0.846000
      9 OAT         -2.2300   -42.2440     9.4310 os         1 D2X      -0.594400
     10 CAS         -3.3760   -43.0130     9.1550 c3         1 D2X       0.218600
     11 CAR         -4.6690   -42.2040     9.0190 c3         1 D2X      -0.080100
     12 CAQ         -4.5710   -41.1200     8.0050 cc         1 D2X      -0.161300
     13 CAH         -5.0910   -41.1020     6.7490 cd         1 D2X      -0.178300
     14 CAB         -5.9220   -42.1390     6.0810 c3         1 D2X      -0.024800
     15 SAP         -3.6490   -39.6850     8.3050 ss         1 D2X       0.765000
     16 CAO         -3.9930   -39.1200     6.7680 cc         1 D2X      -0.383300
     17 NAG         -4.7440   -39.9460     6.0710 na         1 D2X       0.030300
     18 CAF         -5.1960   -39.6330     4.7190 c3         1 D2X       0.124900
     19 CAE         -6.5860   -39.0660     4.7020 ca         1 D2X      -0.248300
     20 CAN         -7.3250   -38.7200     5.8100 ca         1 D2X       0.148900
     21 NAM         -8.5520   -38.2000     5.7420 nb         1 D2X      -0.188000
     22 CAL         -9.0590   -38.0170     4.5360 ca         1 D2X       0.170300
     23 CAK        -10.4270   -37.4290     4.4170 c3         1 D2X      -0.133400
     24 NAC         -8.4330   -38.3150     3.3970 nb         1 D2X      -0.293000
     25 CAD         -7.2260   -38.8250     3.4770 ca         1 D2X       0.357300
     26 OAA         -6.5720   -39.1220     2.3660 oh         1 D2X      -0.644300
     27 HAS         -3.1890   -43.5200     8.2040 h1         1 D2X       0.065700
     28 HASA        -3.5280   -43.7850     9.9150 h1         1 D2X       0.065700
     29 HAR         -5.4580   -42.8970     8.7230 hc         1 D2X       0.078700
     30 HARA        -4.9630   -41.7860     9.9800 hc         1 D2X       0.078700
     31 HAB         -6.8750   -41.7330     5.7390 hc         1 D2X       0.053367
     32 HABA        -5.4070   -42.5630     5.2190 hc         1 D2X       0.053367
     33 HABB        -6.1370   -42.9520     6.7680 hc         1 D2X       0.053367
     34 HAO         -3.6500   -38.1770     6.3690 h5         1 D2X       0.165000
     35 HAF         -4.4840   -38.9250     4.2930 h1         1 D2X       0.080700
     36 HAFA        -5.1320   -40.5410     4.1200 h1         1 D2X       0.080700
     37 HAN         -6.9300   -38.8580     6.8110 h4         1 D2X       0.046100
     38 HAK        -10.8700   -37.2670     5.3960 hc         1 D2X       0.057700
     39 HAKA       -10.3840   -36.4740     3.8900 hc         1 D2X       0.057700
     40 HAKB       -11.0770   -38.0840     3.8380 hc         1 D2X       0.057700
     41 H19         -7.1180   -38.9040     1.5970 ho         1 D2X       0.488000
@<TRIPOS>BOND
     1     1     2 1   
     2     2     3 1   
     3     2     4 1   
     4     2     5 1   
     5     5     6 1   
     6     6     7 1   
     7     6     8 1   
     8     6     9 1   
     9     9    10 1   
    10    10    11 1   
    11    10    27 1   
    12    10    28 1   
    13    11    12 1   
    14    11    29 1   
    15    11    30 1   
    16    12    13 2   
    17    12    15 1   
    18    13    14 1   
    19    13    17 1   
    20    14    31 1   
    21    14    32 1   
    22    14    33 1   
    23    15    16 1   
    24    16    17 2   
    25    16    34 1   
    26    17    18 1   
    27    18    19 1   
    28    18    35 1   
    29    18    36 1   
    30    19    20 ar  
    31    19    25 ar  
    32    20    21 ar  
    33    20    37 1   
    34    21    22 ar  
    35    22    23 1   
    36    22    24 ar  
    37    23    38 1   
    38    23    39 1   
    39    23    40 1   
    40    24    25 ar  
    41    25    26 1   
    42    26    41 1   
@<TRIPOS>SUBSTRUCTURE
     1 D2X         1 TEMP              0 ****  ****    0 ROOT
