@<TRIPOS>MOLECULE
D4M
   31    32     1     0     0
SMALL
abcg2


@<TRIPOS>ATOM
      1 OP2         17.2780    39.0510    28.1010 o          1 D4M      -0.918167
      2 P           16.3870    39.8690    29.0250 p5         1 D4M       1.264900
      3 OP1         17.0780    41.0260    29.7410 o          1 D4M      -0.918167
      4 OP3         15.4410    39.0600    29.9070 o          1 D4M      -0.918167
      5 O5          15.3530    40.6350    27.8720 os         1 D4M      -0.560400
      6 C5          14.2730    41.3570    28.3630 c3         1 D4M       0.269600
      7 C4          13.8240    42.3970    27.3500 c5         1 D4M       0.148500
      8 O4          13.3290    41.8000    26.1480 os         1 D4M      -0.420000
      9 C3          12.6890    43.2490    27.8210 c2         1 D4M      -0.177200
     10 C2          11.6980    43.2170    26.9450 c2         1 D4M      -0.357200
     11 C1          12.0860    42.3410    25.7940 c5         1 D4M       0.362900
     12 N1          11.1190    41.2690    25.5440 n          1 D4M      -0.304000
     13 C6          10.7290    40.4630    26.5810 cc         1 D4M       0.044600
     14 C7           9.8630    39.4420    26.4610 cd         1 D4M      -0.307400
     15 C5M          9.4450    38.5840    27.6100 c3         1 D4M      -0.007900
     16 C8           9.3150    39.1690    25.1460 c          1 D4M       0.596200
     17 O1           8.5220    38.2840    24.8870 o          1 D4M      -0.575000
     18 N3           9.7700    40.0180    24.1510 ns         1 D4M      -0.473500
     19 C9          10.6570    41.0570    24.2630 c          1 D4M       0.623000
     20 O2          10.9860    41.7250    23.3050 o          1 D4M      -0.584000
     21 H5          13.4120    40.7170    28.6100 h1         1 D4M      -0.004300
     22 H5'         14.5210    41.9100    29.2820 h1         1 D4M      -0.004300
     23 H4          14.6880    43.0290    27.0990 h1         1 D4M       0.086700
     24 H3          12.7170    43.8140    28.7420 ha         1 D4M       0.194000
     25 H2          10.7540    43.7420    26.9880 ha         1 D4M       0.179000
     26 H1          12.1520    42.9000    24.8580 h2         1 D4M       0.085700
     27 H6          11.1640    40.7080    27.5420 h4         1 D4M       0.236000
     28 H71          8.3650    38.6210    27.7600 hc         1 D4M       0.039367
     29 H72          9.7120    37.5390    27.4450 hc         1 D4M       0.039367
     30 H73          9.9220    38.9100    28.5320 hc         1 D4M       0.039367
     31 H8           9.4130    39.8550    23.2170 hn         1 D4M       0.321500
@<TRIPOS>BOND
     1     1     2 1   
     2     2     3 1   
     3     2     4 1   
     4     2     5 1   
     5     5     6 1   
     6     6     7 1   
     7     6    21 1   
     8     6    22 1   
     9     7     8 1   
    10     7     9 1   
    11     7    23 1   
    12     8    11 1   
    13     9    10 2   
    14     9    24 1   
    15    10    11 1   
    16    10    25 1   
    17    11    12 1   
    18    11    26 1   
    19    12    13 1   
    20    12    19 1   
    21    13    14 2   
    22    13    27 1   
    23    14    15 1   
    24    14    16 1   
    25    15    28 1   
    26    15    29 1   
    27    15    30 1   
    28    16    17 2   
    29    16    18 1   
    30    18    19 1   
    31    18    31 1   
    32    19    20 2   
@<TRIPOS>SUBSTRUCTURE
     1 D4M         1 TEMP              0 ****  ****    0 ROOT
