@<TRIPOS>MOLECULE
DLL
   51    54     1     0     0
SMALL
abcg2


@<TRIPOS>ATOM
      1 O            3.2260    -7.9440   -12.8900 o          1 DLL      -0.484000
      2 CB           5.2360    -7.3350   -11.7170 c3         1 DLL      -0.121100
      3 CG           5.0990    -5.9570   -12.2910 ca         1 DLL      -0.054300
      4 CD2          4.3820    -4.9720   -11.6170 ca         1 DLL      -0.095500
      5 CD1          5.6650    -5.6470   -13.5230 ca         1 DLL      -0.095500
      6 CE2          4.2350    -3.7040   -12.1640 ca         1 DLL      -0.113500
      7 CE1          5.5160    -4.3830   -14.0770 ca         1 DLL      -0.113500
      8 CZ           4.8010    -3.4060   -13.3970 ca         1 DLL      -0.125000
      9 P            3.2100   -10.7810   -11.8550 p5         1 DLL       1.402800
     10 O2P          1.8780   -10.3400   -11.3680 o          1 DLL      -0.787500
     11 O3P          3.9660   -11.9290   -11.2830 o          1 DLL      -0.787500
     12 O1P          4.3130    -9.4890   -11.6820 os         1 DLL      -0.562500
     13 O5           3.1110   -10.8990   -13.4760 os         1 DLL      -0.580400
     14 C5           4.2330   -11.2700   -14.2520 c3         1 DLL       0.232600
     15 O4           3.3460   -10.0920   -16.1610 os         1 DLL      -0.405000
     16 O3           5.3040   -13.0620   -16.6870 oh         1 DLL      -0.694000
     17 C2           4.4700   -11.1180   -17.9610 c5         1 DLL       0.085300
     18 O2           3.5410   -12.0240   -18.4910 oh         1 DLL      -0.718000
     19 C1           3.7730    -9.8440   -17.4660 c5         1 DLL       0.285300
     20 N9           4.6750    -8.6980   -17.4620 na         1 DLL      -0.296300
     21 C8           5.2950    -8.0950   -16.4040 cc         1 DLL       0.446700
     22 N7           6.0150    -7.0650   -16.7480 nd         1 DLL      -0.577100
     23 C7           5.8580    -6.9760   -18.1060 ca         1 DLL      -0.086600
     24 C6           6.3440    -6.0770   -19.0730 ca         1 DLL       0.444900
     25 CAZ          4.1340    -8.2690   -12.1730 c          1 DLL       0.647100
     26 N6           7.1510    -5.0570   -18.7700 nv         1 DLL      -1.070900
     27 C4           3.8150   -11.3580   -15.6980 c5         1 DLL       0.121300
     28 N1           5.9800    -6.2690   -20.3460 nb         1 DLL      -0.312000
     29 C3           4.9690   -11.7120   -16.6430 c5         1 DLL       0.141300
     30 C9           5.1790    -7.2890   -20.6450 ca         1 DLL       0.168900
     31 C10          5.0270    -7.9830   -18.5690 ca         1 DLL       0.107500
     32 N3           4.6560    -8.1900   -19.8320 nb         1 DLL      -0.228000
     33 HB1C         6.1960    -7.7790   -11.9920 hc         1 DLL       0.067200
     34 HB2C         5.2220    -7.3080   -10.6240 hc         1 DLL       0.067200
     35 HD2          3.9360    -5.1970   -10.6550 ha         1 DLL       0.115000
     36 HD1          6.2290    -6.4000   -14.0600 ha         1 DLL       0.115000
     37 HE2          3.6770    -2.9480   -11.6260 ha         1 DLL       0.101000
     38 HE1          5.9580    -4.1640   -15.0410 ha         1 DLL       0.101000
     39 HZ           4.6850    -2.4180   -13.8240 ha         1 DLL       0.096000
     40 H5'1         5.0480   -10.5440   -14.1460 h1         1 DLL       0.029700
     41 H5'2         4.6240   -12.2480   -13.9510 h1         1 DLL       0.029700
     42 H4           3.0100   -12.0990   -15.7960 h1         1 DLL       0.078700
     43 H1           2.9260    -9.5780   -18.1060 h2         1 DLL       0.097700
     44 H3           4.5950   -13.5370   -17.1360 ho         1 DLL       0.518000
     45 HA           5.8710   -11.1730   -16.3340 h1         1 DLL       0.085700
     46 H2           5.2790   -10.8970   -18.6650 h1         1 DLL       0.070700
     47 HB           3.3200   -11.7630   -19.3920 ho         1 DLL       0.517000
     48 H8           5.1760    -8.4480   -15.3920 h5         1 DLL       0.095800
     49 H61N         7.3870    -4.8500   -17.8160 hn         1 DLL       0.502000
     50 H62N         7.4260    -4.4030   -19.4820 hn         1 DLL       0.502000
     51 H7           4.9250    -7.3880   -21.6950 h5         1 DLL       0.036100
@<TRIPOS>BOND
     1     1    25 2   
     2     2     3 1   
     3     2    25 1   
     4     2    33 1   
     5     2    34 1   
     6     3     4 ar  
     7     3     5 ar  
     8     4     6 ar  
     9     4    35 1   
    10     5     7 ar  
    11     5    36 1   
    12     6     8 ar  
    13     6    37 1   
    14     7     8 ar  
    15     7    38 1   
    16     8    39 1   
    17     9    10 1   
    18     9    11 1   
    19     9    12 1   
    20     9    13 1   
    21    12    25 1   
    22    13    14 1   
    23    14    27 1   
    24    14    40 1   
    25    14    41 1   
    26    15    19 1   
    27    15    27 1   
    28    16    29 1   
    29    16    44 1   
    30    17    18 1   
    31    17    19 1   
    32    17    29 1   
    33    17    46 1   
    34    18    47 1   
    35    19    20 1   
    36    19    43 1   
    37    20    21 1   
    38    20    31 1   
    39    21    22 2   
    40    21    48 1   
    41    22    23 1   
    42    23    24 ar  
    43    23    31 ar  
    44    24    26 1   
    45    24    28 ar  
    46    26    49 1   
    47    26    50 1   
    48    27    29 1   
    49    27    42 1   
    50    28    30 ar  
    51    29    45 1   
    52    30    32 ar  
    53    30    51 1   
    54    31    32 ar  
@<TRIPOS>SUBSTRUCTURE
     1 DLL         1 TEMP              0 ****  ****    0 ROOT
