@<TRIPOS>MOLECULE
DNM
   24    23     1     0     0
SMALL
abcg2


@<TRIPOS>ATOM
      1 C            1.8850    -0.6490     0.0030 c          1 DNM       0.721000
      2 N            0.6960     1.5530     0.1720 n7         1 DNM      -0.823400
      3 O            2.5410    -0.3330     1.0130 o          1 DNM      -0.726500
      4 C1           1.7050     2.3710    -0.4680 c3         1 DNM       0.159100
      5 CA           0.6370     0.2020    -0.3560 c3         1 DNM       0.032500
      6 CB          -0.6000    -0.5290     0.1780 c3         1 DNM      -0.064400
      7 CD          -3.1290    -0.7340     0.2450 c3         1 DNM      -0.077400
      8 CE          -4.4650    -0.0480    -0.0080 c3         1 DNM      -0.086100
      9 CG          -1.9360     0.1330    -0.1430 c3         1 DNM      -0.079400
     10 OXT          2.0920    -1.6280    -0.7450 o          1 DNM      -0.726500
     11 HA           0.5570     0.2120    -1.4590 h1         1 DNM      -0.000300
     12 HB          -0.5990    -1.5370    -0.2460 hc         1 DNM       0.048700
     13 HBA         -0.5070    -0.6480     1.2640 hc         1 DNM       0.048700
     14 H1           1.6170     3.4020    -0.1240 h1         1 DNM       0.013367
     15 H1A          2.7010     2.0210    -0.2020 h1         1 DNM       0.013367
     16 H1B          1.6410     2.3820    -1.5670 h1         1 DNM       0.013367
     17 HD          -3.0510    -1.0030     1.3030 hc         1 DNM       0.034200
     18 HDA         -3.0870    -1.6750    -0.3110 hc         1 DNM       0.034200
     19 HE          -5.3040    -0.6860     0.2720 hc         1 DNM       0.020033
     20 HEA         -4.5460     0.8750     0.5690 hc         1 DNM       0.020033
     21 HEB         -4.5830     0.2110    -1.0610 hc         1 DNM       0.020033
     22 HG          -2.0250     1.0930     0.3770 hc         1 DNM       0.024700
     23 HGA         -1.9870     0.3580    -1.2150 hc         1 DNM       0.024700
     24 H           -0.2000     1.9980     0.0160 hn         1 DNM       0.358000
@<TRIPOS>BOND
     1     1     3 1   
     2     1     5 1   
     3     1    10 1   
     4     2     4 1   
     5     2     5 1   
     6     2    24 1   
     7     4    14 1   
     8     4    15 1   
     9     4    16 1   
    10     5     6 1   
    11     5    11 1   
    12     6     9 1   
    13     6    12 1   
    14     6    13 1   
    15     7     8 1   
    16     7     9 1   
    17     7    17 1   
    18     7    18 1   
    19     8    19 1   
    20     8    20 1   
    21     8    21 1   
    22     9    22 1   
    23     9    23 1   
@<TRIPOS>SUBSTRUCTURE
     1 DNM         1 TEMP              0 ****  ****    0 ROOT
