@<TRIPOS>MOLECULE
DOC
   31    32     1     0     0
SMALL
abcg2


@<TRIPOS>ATOM
      1 N1           8.3460    10.8760    13.0800 n          1 DOC      -0.314000
      2 C2           8.6440    11.3180    11.7800 c          1 DOC       0.716400
      3 N3           9.9370    11.3010    11.3870 nc         1 DOC      -0.828100
      4 C4          10.8900    10.8740    12.1920 cd         1 DOC       0.776500
      5 C5          10.6170    10.4110    13.5140 cd         1 DOC      -0.506600
      6 C6           9.3270    10.4400    13.9050 cc         1 DOC       0.064600
      7 O2           7.7440    11.6980    11.0420 o          1 DOC      -0.617000
      8 N4          12.1460    10.8800    11.7430 nv         1 DOC      -1.058200
      9 C1           6.9730    10.8970    13.5790 c5         1 DOC       0.331700
     10 C7           6.4120     9.5140    13.9030 c5         1 DOC      -0.115400
     11 C3           5.4860     9.8030    15.0740 c5         1 DOC      -0.087400
     12 C8           6.1610    10.9840    15.7810 c5         1 DOC       0.152300
     13 O4           6.9240    11.6450    14.7670 os         1 DOC      -0.473000
     14 C9           7.0350    10.6070    16.9650 c3         1 DOC       0.242600
     15 O5           7.9720     9.6470    16.6020 os         1 DOC      -0.605400
     16 P            8.9630     8.9040    17.8100 p5         1 DOC       1.268900
     17 OP1          9.8700     8.0670    16.9180 o          1 DOC      -0.918500
     18 OP2          7.9850     8.1130    18.6710 o          1 DOC      -0.918500
     19 OP3          9.6360    10.0710    18.5240 o          1 DOC      -0.918500
     20 H5          11.3940    10.0590    14.1760 ha         1 DOC       0.226000
     21 H6           9.0210    10.1160    14.8940 h4         1 DOC       0.313000
     22 HN41        12.9110    10.5750    12.3190 hn         1 DOC       0.482500
     23 HN42        12.3520    11.2080    10.8150 hn         1 DOC       0.482500
     24 H1           6.3800    11.3830    12.8040 h2         1 DOC       0.066700
     25 H2           5.9000     9.0870    13.0410 hc         1 DOC       0.065700
     26 H2'          7.2050     8.8250    14.1940 hc         1 DOC       0.065700
     27 H3'1         4.4980    10.0970    14.7160 hc         1 DOC       0.039700
     28 H3'2         5.3550     8.9450    15.7320 hc         1 DOC       0.039700
     29 H4           5.4090    11.6930    16.1460 h1         1 DOC       0.016700
     30 H7           7.5050    11.5220    17.3570 h1         1 DOC       0.004700
     31 H5'          6.3580    10.2490    17.7570 h1         1 DOC       0.004700
@<TRIPOS>BOND
     1     1     2 1   
     2     1     6 1   
     3     1     9 1   
     4     2     3 1   
     5     2     7 2   
     6     3     4 2   
     7     4     5 1   
     8     4     8 1   
     9     5     6 2   
    10     5    20 1   
    11     6    21 1   
    12     8    22 1   
    13     8    23 1   
    14     9    10 1   
    15     9    13 1   
    16     9    24 1   
    17    10    11 1   
    18    10    25 1   
    19    10    26 1   
    20    11    12 1   
    21    11    27 1   
    22    11    28 1   
    23    12    13 1   
    24    12    14 1   
    25    12    29 1   
    26    14    15 1   
    27    14    30 1   
    28    14    31 1   
    29    15    16 1   
    30    16    17 1   
    31    16    18 1   
    32    16    19 1   
@<TRIPOS>SUBSTRUCTURE
     1 DOC         1 TEMP              0 ****  ****    0 ROOT
