@<TRIPOS>MOLECULE
DPB
   45    48     1     0     0
SMALL
abcg2


@<TRIPOS>ATOM
      1 C11         15.6880    41.9590    24.3500 ca         1 DPB      -0.147500
      2 C12         14.3950    42.2880    23.9630 ca         1 DPB      -0.067500
      3 C7          13.5640    41.3450    23.3600 ca         1 DPB       0.003700
      4 C8          14.0780    40.0660    23.1360 ca         1 DPB      -0.067500
      5 C9          15.3680    39.7360    23.5230 ca         1 DPB      -0.147500
      6 C10         16.1830    40.6810    24.1340 ca         1 DPB      -0.157000
      7 C2           9.4340    38.8830    27.3900 c          1 DPB       0.616000
      8 N1          10.0030    39.5130    26.3070 n          1 DPB      -0.300000
      9 C6          11.3570    39.7180    26.2390 cc         1 DPB       0.038600
     10 C5          12.2300    39.3260    27.1830 cd         1 DPB      -0.307400
     11 C4          11.7080    38.6500    28.3530 c          1 DPB       0.590200
     12 N3          10.3340    38.4800    28.3440 ns         1 DPB      -0.474500
     13 O4          12.3750    38.2460    29.2880 o          1 DPB      -0.581000
     14 C5M         13.7000    39.5680    27.0760 c3         1 DPB      -0.014900
     15 C1           9.1400    40.0630    25.2620 c5         1 DPB       0.329700
     16 O1           9.3800    41.4400    25.1770 os         1 DPB      -0.473000
     17 C16          9.4640    41.8470    23.8140 c5         1 DPB       0.098300
     18 C3           9.9940    40.6290    23.0640 c5         1 DPB       0.175300
     19 C13          9.3670    39.4890    23.8520 c5         1 DPB      -0.130400
     20 C15         10.3660    43.0530    23.6870 c6         1 DPB       0.179600
     21 O5          11.7200    42.6950    23.8290 os         1 DPB      -0.476000
     22 C14         12.1610    41.6950    22.9350 c6         1 DPB       0.175300
     23 O3          11.3970    40.5190    23.1700 os         1 DPB      -0.503000
     24 P           12.1750    42.2310    21.0830 p5         1 DPB       1.242500
     25 OP2         12.8540    41.0570    20.3780 o          1 DPB      -0.894167
     26 OP1         12.9810    43.5300    21.1030 o          1 DPB      -0.894167
     27 OP3         10.6990    42.4160    20.6950 o          1 DPB      -0.894167
     28 H11         16.3110    42.7080    24.8230 ha         1 DPB       0.075500
     29 H12         14.0340    43.2900    24.1470 ha         1 DPB       0.130000
     30 H8          13.4660    39.3140    22.6610 ha         1 DPB       0.130000
     31 H9          15.7400    38.7340    23.3450 ha         1 DPB       0.075500
     32 H10         17.1900    40.4230    24.4390 ha         1 DPB       0.068000
     33 H6          11.7010    40.2160    25.3440 h4         1 DPB       0.278000
     34 H3           9.9300    38.0110    29.1450 hn         1 DPB       0.317500
     35 H71         14.0680    40.1610    27.9150 hc         1 DPB       0.045033
     36 H72         14.2610    38.6320    27.0740 hc         1 DPB       0.045033
     37 H73         13.9400    40.1020    26.1580 hc         1 DPB       0.045033
     38 H1           8.1210    39.8680    25.5930 h2         1 DPB       0.068700
     39 H4           8.4630    42.0990    23.4390 h1         1 DPB       0.038700
     40 H13          9.6800    40.6500    22.0200 h1         1 DPB       0.121700
     41 H2           8.4000    39.2360    23.4150 hc         1 DPB       0.057200
     42 H2'          9.9720    38.5810    23.8490 hc         1 DPB       0.057200
     43 H5          10.1440    43.7760    24.4750 h1         1 DPB       0.064200
     44 H5'         10.1670    43.5250    22.7240 h1         1 DPB       0.064200
     45 O2           8.2420    38.6840    27.5130 o          1 DPB      -0.600000
@<TRIPOS>BOND
     1     1     2 ar  
     2     1     6 ar  
     3     1    28 1   
     4     2     3 ar  
     5     2    29 1   
     6     3     4 ar  
     7     3    22 1   
     8     4     5 ar  
     9     4    30 1   
    10     5     6 ar  
    11     5    31 1   
    12     6    32 1   
    13     7     8 1   
    14     7    12 1   
    15     7    45 2   
    16     8     9 1   
    17     8    15 1   
    18     9    10 2   
    19     9    33 1   
    20    10    11 1   
    21    10    14 1   
    22    11    12 1   
    23    11    13 2   
    24    12    34 1   
    25    14    35 1   
    26    14    36 1   
    27    14    37 1   
    28    15    16 1   
    29    15    19 1   
    30    15    38 1   
    31    16    17 1   
    32    17    18 1   
    33    17    20 1   
    34    17    39 1   
    35    18    19 1   
    36    18    23 1   
    37    18    40 1   
    38    19    41 1   
    39    19    42 1   
    40    20    21 1   
    41    20    43 1   
    42    20    44 1   
    43    21    22 1   
    44    22    23 1   
    45    22    24 1   
    46    24    25 1   
    47    24    26 1   
    48    24    27 1   
@<TRIPOS>SUBSTRUCTURE
     1 DPB         1 TEMP              0 ****  ****    0 ROOT
