@<TRIPOS>MOLECULE
DSL
  136   135     1     0     0
SMALL
abcg2


@<TRIPOS>ATOM
      1 C06         16.8220     4.2460    -0.6330 c3         1 DSL      -0.055900
      2 C07         17.2830     3.7610    -1.9760 c2         1 DSL      -0.113400
      3 C08         17.9010     4.8280    -2.8350 c3         1 DSL      -0.055900
      4 C09         17.1790     2.5020    -2.4100 c2         1 DSL      -0.223200
      5 C10         16.5950     1.3240    -1.6970 c3         1 DSL      -0.036200
      6 C11         15.4070     0.7210    -2.4630 c3         1 DSL      -0.037200
      7 C12         14.7580    -0.4260    -1.7350 c2         1 DSL      -0.117400
      8 C13         15.6360    -1.6200    -1.4990 c3         1 DSL      -0.052900
      9 C14         13.4880    -0.3290    -1.3310 c2         1 DSL      -0.217200
     10 C15         12.6870    -1.3150    -0.5410 c3         1 DSL      -0.037200
     11 C16         12.4430    -0.8100     0.8910 c3         1 DSL      -0.036200
     12 C17         11.6460    -1.7840     1.7180 c2         1 DSL      -0.120400
     13 C18         12.4600    -2.8100     2.4540 c3         1 DSL      -0.051900
     14 C19         10.3120    -1.7830     1.7790 c2         1 DSL      -0.213200
     15 C20          9.3800    -0.8670     1.0530 c3         1 DSL      -0.041200
     16 C21          8.5800    -1.6090    -0.0290 c3         1 DSL      -0.035200
     17 C22          7.6940    -0.6730    -0.8080 c2         1 DSL      -0.122400
     18 C23          8.3490    -0.0110    -1.9850 c3         1 DSL      -0.052900
     19 C24          6.4310    -0.4000    -0.4720 c2         1 DSL      -0.212200
     20 C25          5.6680    -0.9490     0.6920 c3         1 DSL      -0.042200
     21 C26          5.4160     0.1210     1.7670 c3         1 DSL      -0.033200
     22 C27          4.6760    -0.4320     2.9590 c2         1 DSL      -0.125400
     23 C28          5.5430    -0.8740     4.1000 c3         1 DSL      -0.050900
     24 C29          3.3470    -0.5650     3.0000 c2         1 DSL      -0.209200
     25 C30          2.3870    -0.2220     1.9050 c3         1 DSL      -0.043200
     26 C31          1.7780    -1.4820     1.2630 c3         1 DSL      -0.032200
     27 C32          1.0380    -1.1650    -0.0080 c2         1 DSL      -0.132400
     28 C33          1.8920    -1.1240    -1.2430 c3         1 DSL      -0.050900
     29 C34         -0.2680    -0.8940    -0.0630 c2         1 DSL      -0.202200
     30 C35         -1.2340    -0.8280     1.0770 c3         1 DSL      -0.043200
     31 C36         -1.7960     0.5920     1.2500 c3         1 DSL      -0.031200
     32 C37         -2.7760     0.6910     2.3910 c2         1 DSL      -0.139400
     33 C38         -2.1890     1.1030     3.7080 c3         1 DSL      -0.047900
     34 C39         -4.0740     0.4050     2.2670 c2         1 DSL      -0.195200
     35 C40         -4.7750    -0.0790     1.0370 c3         1 DSL      -0.049200
     36 C41         -5.3640    -1.4850     1.2480 c3         1 DSL      -0.025200
     37 C42         -5.9790    -2.0420    -0.0090 c2         1 DSL      -0.157400
     38 C43         -5.0690    -2.9000    -0.8370 c3         1 DSL      -0.043900
     39 C44         -7.2260    -1.7680    -0.4030 c2         1 DSL      -0.180200
     40 C45         -8.2040    -0.8700     0.2860 c3         1 DSL      -0.053200
     41 C46         -8.4370     0.4270    -0.5080 c3         1 DSL      -0.017200
     42 C47         -9.3310     1.3890     0.2300 c2         1 DSL      -0.192400
     43 C48         -8.6180     2.3440     1.1430 c3         1 DSL      -0.035900
     44 C49        -10.6620     1.3820     0.1300 c2         1 DSL      -0.144200
     45 C50        -11.5000     0.4430    -0.6780 c3         1 DSL      -0.067200
     46 C51        -12.3570    -0.4620     0.2250 c3         1 DSL       0.001800
     47 C52        -13.1550    -1.4560    -0.5820 c2         1 DSL      -0.237400
     48 C53        -12.5290    -2.8120    -0.7200 c3         1 DSL      -0.023900
     49 C54        -14.3020    -1.1520    -1.1920 c2         1 DSL      -0.118200
     50 C55        -15.0020     0.1720    -1.1860 c3         1 DSL       0.254800
     51 O56        -14.9280     0.7230    -2.4760 os         1 DSL      -0.577400
     52 P57        -16.1050     1.8830    -2.8840 p5         1 DSL       1.266900
     53 O58        -17.4250     1.1160    -2.9050 o          1 DSL      -0.924833
     54 O59        -16.0240     2.9420    -1.7890 o          1 DSL      -0.924833
     55 O60        -15.6030     2.3260    -4.2530 o          1 DSL      -0.924833
     56 H061        17.6540     4.6820    -0.0750 hc         1 DSL       0.038200
     57 H062        16.0800     5.0410    -0.7500 hc         1 DSL       0.038200
     58 H063        16.3800     3.4670    -0.0160 hc         1 DSL       0.038200
     59 H081        18.7890     5.2480    -2.3550 hc         1 DSL       0.038200
     60 H082        18.1950     4.4510    -3.8140 hc         1 DSL       0.038200
     61 H083        17.2090     5.6600    -2.9850 hc         1 DSL       0.038200
     62 H09         17.5530     2.2850    -3.4090 ha         1 DSL       0.163000
     63 H101        17.3720     0.5610    -1.5850 hc         1 DSL       0.045200
     64 H102        16.2710     1.5830    -0.6870 hc         1 DSL       0.045200
     65 H111        14.6690     1.5060    -2.6460 hc         1 DSL       0.044700
     66 H112        15.7590     0.3840    -3.4460 hc         1 DSL       0.044700
     67 H131        16.0940    -1.9500    -2.4340 hc         1 DSL       0.037700
     68 H132        16.4570    -1.3770    -0.8210 hc         1 DSL       0.037700
     69 H133        15.1050    -2.4680    -1.0720 hc         1 DSL       0.037700
     70 H14         12.9650     0.5980    -1.5610 ha         1 DSL       0.165000
     71 H151        11.7170    -1.4690    -1.0250 hc         1 DSL       0.046700
     72 H152        13.1650    -2.2950    -0.5080 hc         1 DSL       0.046700
     73 H161        13.4120    -0.6360     1.3660 hc         1 DSL       0.044200
     74 H162        11.9520     0.1640     0.8420 hc         1 DSL       0.044200
     75 H181        13.1390    -2.3340     3.1660 hc         1 DSL       0.037033
     76 H182        11.8350    -3.5180     2.9990 hc         1 DSL       0.037033
     77 H183        13.0880    -3.3810     1.7650 hc         1 DSL       0.037033
     78 H19          9.8290    -2.5480     2.3840 ha         1 DSL       0.166000
     79 H201         8.6690    -0.4240     1.7590 hc         1 DSL       0.047200
     80 H202         9.9180    -0.0320     0.6000 hc         1 DSL       0.047200
     81 H211         9.2810    -2.0990    -0.7120 hc         1 DSL       0.044200
     82 H212         8.0050    -2.4100     0.4400 hc         1 DSL       0.044200
     83 H231         8.6090    -0.7470    -2.7500 hc         1 DSL       0.037367
     84 H232         7.7080     0.7410    -2.4430 hc         1 DSL       0.037367
     85 H233         9.2850     0.4750    -1.6950 hc         1 DSL       0.037367
     86 H24          5.8880     0.3240    -1.0780 ha         1 DSL       0.167000
     87 H251         4.7000    -1.3270     0.3450 hc         1 DSL       0.048700
     88 H252         6.1840    -1.8020     1.1390 hc         1 DSL       0.048700
     89 H261         6.3790     0.5260     2.0900 hc         1 DSL       0.043700
     90 H262         4.8740     0.9570     1.3180 hc         1 DSL       0.043700
     91 H281         6.0650    -0.0240     4.5480 hc         1 DSL       0.035700
     92 H282         4.9730    -1.3720     4.8840 hc         1 DSL       0.035700
     93 H283         6.3200    -1.5640     3.7590 hc         1 DSL       0.035700
     94 H29          2.9050    -1.0050     3.8910 ha         1 DSL       0.166000
     95 H301         1.5690     0.3910     2.2970 hc         1 DSL       0.048200
     96 H302         2.8750     0.3780     1.1340 hc         1 DSL       0.048200
     97 H311         2.5840    -2.1880     1.0400 hc         1 DSL       0.042700
     98 H312         1.1350    -1.9820     1.9900 hc         1 DSL       0.042700
     99 H331         2.3600    -2.0940    -1.4300 hc         1 DSL       0.035367
    100 H332         1.3220    -0.8460    -2.1290 hc         1 DSL       0.035367
    101 H333         2.7060    -0.4020    -1.1350 hc         1 DSL       0.035367
    102 H34         -0.6940    -0.6510    -1.0350 ha         1 DSL       0.169000
    103 H351        -2.0700    -1.5110     0.8890 hc         1 DSL       0.048700
    104 H352        -0.7750    -1.1570     2.0120 hc         1 DSL       0.048700
    105 H361        -0.9640     1.2820     1.4220 hc         1 DSL       0.042700
    106 H362        -2.2570     0.9070     0.3110 hc         1 DSL       0.042700
    107 H381        -1.7740     2.1130     3.6540 hc         1 DSL       0.032700
    108 H382        -2.9250     1.0810     4.5120 hc         1 DSL       0.032700
    109 H383        -1.3620     0.4470     3.9930 hc         1 DSL       0.032700
    110 H39         -4.7020     0.4860     3.1520 ha         1 DSL       0.167000
    111 H401        -5.5920     0.6040     0.7780 hc         1 DSL       0.054700
    112 H402        -4.1040    -0.0910     0.1750 hc         1 DSL       0.054700
    113 H411        -4.5640    -2.1500     1.5870 hc         1 DSL       0.037700
    114 H412        -6.0880    -1.4490     2.0650 hc         1 DSL       0.037700
    115 H431        -4.7850    -3.8070    -0.2970 hc         1 DSL       0.029367
    116 H432        -5.5260    -3.1960    -1.7810 hc         1 DSL       0.029367
    117 H433        -4.1370    -2.3760    -1.0650 hc         1 DSL       0.029367
    118 H44         -7.5680    -2.1930    -1.3440 ha         1 DSL       0.170000
    119 H451        -9.1660    -1.3820     0.4000 hc         1 DSL       0.051200
    120 H452        -7.8690    -0.6200     1.2950 hc         1 DSL       0.051200
    121 H461        -7.4690     0.9010    -0.6950 hc         1 DSL       0.038700
    122 H462        -8.8450     0.1750    -1.4900 hc         1 DSL       0.038700
    123 H481        -7.9460     2.9980     0.5820 hc         1 DSL       0.022033
    124 H482        -9.3080     2.9700     1.7080 hc         1 DSL       0.022033
    125 H483        -7.9930     1.8060     1.8620 hc         1 DSL       0.022033
    126 H49        -11.2230     2.1010     0.7250 ha         1 DSL       0.171000
    127 H501       -12.1740     1.0060    -1.3310 hc         1 DSL       0.075700
    128 H502       -10.8840    -0.1810    -1.3290 hc         1 DSL       0.075700
    129 H511       -11.6960    -0.9950     0.9150 hc         1 DSL       0.021700
    130 H512       -13.0050     0.1600     0.8460 hc         1 DSL       0.021700
    131 H531       -12.4410    -3.3050     0.2520 hc         1 DSL       0.008367
    132 H532       -13.0970    -3.4650    -1.3810 hc         1 DSL       0.008367
    133 H533       -11.5120    -2.7340    -1.1160 hc         1 DSL       0.008367
    134 H54        -14.7800    -1.9230    -1.7940 ha         1 DSL       0.153000
    135 H551       -16.0480     0.0140    -0.8850 h1         1 DSL       0.007200
    136 H552       -14.5620     0.8440    -0.4410 h1         1 DSL       0.007200
@<TRIPOS>BOND
     1     1     2 1   
     2     1    56 1   
     3     1    57 1   
     4     1    58 1   
     5     2     3 1   
     6     2     4 2   
     7     3    59 1   
     8     3    60 1   
     9     3    61 1   
    10     4     5 1   
    11     4    62 1   
    12     5     6 1   
    13     5    63 1   
    14     5    64 1   
    15     6     7 1   
    16     6    65 1   
    17     6    66 1   
    18     7     8 1   
    19     7     9 2   
    20     8    67 1   
    21     8    68 1   
    22     8    69 1   
    23     9    10 1   
    24     9    70 1   
    25    10    11 1   
    26    10    71 1   
    27    10    72 1   
    28    11    12 1   
    29    11    73 1   
    30    11    74 1   
    31    12    13 1   
    32    12    14 2   
    33    13    75 1   
    34    13    76 1   
    35    13    77 1   
    36    14    15 1   
    37    14    78 1   
    38    15    16 1   
    39    15    79 1   
    40    15    80 1   
    41    16    17 1   
    42    16    81 1   
    43    16    82 1   
    44    17    18 1   
    45    17    19 2   
    46    18    83 1   
    47    18    84 1   
    48    18    85 1   
    49    19    20 1   
    50    19    86 1   
    51    20    21 1   
    52    20    87 1   
    53    20    88 1   
    54    21    22 1   
    55    21    89 1   
    56    21    90 1   
    57    22    23 1   
    58    22    24 2   
    59    23    91 1   
    60    23    92 1   
    61    23    93 1   
    62    24    25 1   
    63    24    94 1   
    64    25    26 1   
    65    25    95 1   
    66    25    96 1   
    67    26    27 1   
    68    26    97 1   
    69    26    98 1   
    70    27    28 1   
    71    27    29 2   
    72    28    99 1   
    73    28   100 1   
    74    28   101 1   
    75    29    30 1   
    76    29   102 1   
    77    30    31 1   
    78    30   103 1   
    79    30   104 1   
    80    31    32 1   
    81    31   105 1   
    82    31   106 1   
    83    32    33 1   
    84    32    34 2   
    85    33   107 1   
    86    33   108 1   
    87    33   109 1   
    88    34    35 1   
    89    34   110 1   
    90    35    36 1   
    91    35   111 1   
    92    35   112 1   
    93    36    37 1   
    94    36   113 1   
    95    36   114 1   
    96    37    38 1   
    97    37    39 2   
    98    38   115 1   
    99    38   116 1   
   100    38   117 1   
   101    39    40 1   
   102    39   118 1   
   103    40    41 1   
   104    40   119 1   
   105    40   120 1   
   106    41    42 1   
   107    41   121 1   
   108    41   122 1   
   109    42    43 1   
   110    42    44 2   
   111    43   123 1   
   112    43   124 1   
   113    43   125 1   
   114    44    45 1   
   115    44   126 1   
   116    45    46 1   
   117    45   127 1   
   118    45   128 1   
   119    46    47 1   
   120    46   129 1   
   121    46   130 1   
   122    47    48 1   
   123    47    49 2   
   124    48   131 1   
   125    48   132 1   
   126    48   133 1   
   127    49    50 1   
   128    49   134 1   
   129    50    51 1   
   130    50   135 1   
   131    50   136 1   
   132    51    52 1   
   133    52    53 1   
   134    52    54 1   
   135    52    55 1   
@<TRIPOS>SUBSTRUCTURE
     1 DSL         1 TEMP              0 ****  ****    0 ROOT
