@<TRIPOS>MOLECULE
DST
   23    22     1     0     0
SMALL
abcg2


@<TRIPOS>ATOM
      1 O4          60.6370    74.5480    43.4090 o          1 DST      -0.940833
      2 P1          59.6700    74.0650    42.3410 p5         1 DST       1.337900
      3 O6          60.2580    73.9840    40.9400 o          1 DST      -0.940833
      4 O5          58.2590    74.6300    42.4210 o          1 DST      -0.940833
      5 O2          59.4660    72.3850    42.8230 os         1 DST      -0.704800
      6 P3          58.2130    71.4540    42.4680 p5         1 DST       1.309800
      7 O8          57.1220    71.5360    43.4980 o          1 DST      -0.822500
      8 O7          57.8720    71.4780    41.0060 o          1 DST      -0.822500
      9 S9          59.0820    69.5280    42.9600 ss         1 DST      -0.564400
     10 C10         60.6220    69.4520    41.9700 c3         1 DST       0.087800
     11 C11         60.4510    68.8740    40.6070 c2         1 DST      -0.167200
     12 C12         60.7350    69.4570    39.4390 c2         1 DST      -0.144400
     13 C13         60.5870    68.7070    38.1470 c3         1 DST      -0.039400
     14 C14         61.2350    70.8620    39.2820 c3         1 DST      -0.039400
     15 H101        61.0690    70.4450    41.9540 h1         1 DST       0.052200
     16 H102        61.2940    68.8140    42.5480 h1         1 DST       0.052200
     17 H111        60.0900    67.8490    40.5870 ha         1 DST       0.128000
     18 H131        61.5390    68.6710    37.6110 hc         1 DST       0.026533
     19 H132        60.2480    67.6830    38.2980 hc         1 DST       0.026533
     20 H133        59.8780    69.2070    37.4810 hc         1 DST       0.026533
     21 H141        60.6900    71.3700    38.4830 hc         1 DST       0.026533
     22 H142        61.1400    71.4730    40.1760 hc         1 DST       0.026533
     23 H143        62.2880    70.8630    38.9850 hc         1 DST       0.026533
@<TRIPOS>BOND
     1     1     2 1   
     2     2     3 1   
     3     2     4 1   
     4     2     5 1   
     5     5     6 1   
     6     6     7 1   
     7     6     8 1   
     8     6     9 1   
     9     9    10 1   
    10    10    11 1   
    11    10    15 1   
    12    10    16 1   
    13    11    12 2   
    14    11    17 1   
    15    12    13 1   
    16    12    14 1   
    17    13    18 1   
    18    13    19 1   
    19    13    20 1   
    20    14    21 1   
    21    14    22 1   
    22    14    23 1   
@<TRIPOS>SUBSTRUCTURE
     1 DST         1 TEMP              0 ****  ****    0 ROOT
