@<TRIPOS>MOLECULE
DUN
   36    37     1     0     0
SMALL
abcg2


@<TRIPOS>ATOM
      1 N1          60.2110    56.9250    16.7470 n          1 DUN      -0.315000
      2 C2          60.0890    55.5750    16.9880 c          1 DUN       0.604000
      3 N3          59.5620    55.2500    18.2110 ns         1 DUN      -0.478500
      4 C4          59.1120    56.1150    19.2000 c          1 DUN       0.592200
      5 C5          59.2620    57.5030    18.8500 cc         1 DUN      -0.441200
      6 C6          59.7980    57.8430    17.6630 cd         1 DUN       0.059600
      7 O2          60.4230    54.7340    16.1790 o          1 DUN      -0.612000
      8 O4          58.6480    55.6770    20.2370 o          1 DUN      -0.604000
      9 C1          60.7750    57.3110    15.4310 c5         1 DUN       0.342700
     10 C7          59.7540    57.1840    14.2950 c5         1 DUN      -0.123400
     11 C3          60.0420    58.4080    13.4410 c5         1 DUN       0.143300
     12 C8          60.4690    59.4200    14.4990 c5         1 DUN       0.099300
     13 O6          61.1810    58.6390    15.4660 os         1 DUN      -0.432000
     14 O3          61.0860    58.0810    12.5530 oh         1 DUN      -0.763000
     15 C9          59.2880    60.1580    15.1010 c3         1 DUN       0.220600
     16 O5          59.7230    60.8730    16.2260 os         1 DUN      -0.607400
     17 PA          59.0380    62.3640    16.5910 p5         1 DUN       1.375700
     18 O1A         57.5610    62.2330    16.3340 o          1 DUN      -0.880500
     19 O2A         59.5430    62.6230    17.9880 o          1 DUN      -0.880500
     20 PB          59.8560    63.5930    13.7710 p5         1 DUN       1.283800
     21 O1B         60.9010    62.5680    13.3120 o          1 DUN      -0.956833
     22 O2B         60.3150    65.0410    13.5890 o          1 DUN      -0.956833
     23 O3B         58.4410    63.2970    13.2780 o          1 DUN      -0.956833
     24 N3A         59.7590    63.4710    15.5560 n7         1 DUN      -0.962600
     25 H3          59.4750    54.2580    18.3940 hn         1 DUN       0.305500
     26 H5          58.9500    58.2660    19.5460 ha         1 DUN       0.233000
     27 H6          59.9280    58.8810    17.3900 h4         1 DUN       0.307000
     28 H1          61.6440    56.6690    15.2750 h2         1 DUN       0.068700
     29 H2'1        58.7360    57.2250    14.6850 hc         1 DUN       0.056200
     30 H2'2        59.8590    56.2540    13.7400 hc         1 DUN       0.056200
     31 H7          59.1490    58.7490    12.9020 h1         1 DUN       0.068700
     32 H4          61.1590    60.1730    14.1090 h1         1 DUN       0.168700
     33 HA          61.3530    58.8780    12.0850 ho         1 DUN       0.528000
     34 H5'1        58.4840    59.4590    15.3760 h1         1 DUN       0.031200
     35 H5'2        58.8830    60.8100    14.3210 h1         1 DUN       0.031200
     36 H3A         60.6070    63.8310    15.9770 hn         1 DUN       0.394000
@<TRIPOS>BOND
     1     1     2 1   
     2     1     6 1   
     3     1     9 1   
     4     2     3 1   
     5     2     7 2   
     6     3     4 1   
     7     3    25 1   
     8     4     5 1   
     9     4     8 2   
    10     5     6 2   
    11     5    26 1   
    12     6    27 1   
    13     9    10 1   
    14     9    13 1   
    15     9    28 1   
    16    10    11 1   
    17    10    29 1   
    18    10    30 1   
    19    11    12 1   
    20    11    14 1   
    21    11    31 1   
    22    12    13 1   
    23    12    15 1   
    24    12    32 1   
    25    14    33 1   
    26    15    16 1   
    27    15    34 1   
    28    15    35 1   
    29    16    17 1   
    30    17    18 1   
    31    17    19 1   
    32    17    24 1   
    33    20    21 1   
    34    20    22 1   
    35    20    23 1   
    36    20    24 1   
    37    24    36 1   
@<TRIPOS>SUBSTRUCTURE
     1 DUN         1 TEMP              0 ****  ****    0 ROOT
