@<TRIPOS>MOLECULE
81Q
  191   191     1     0     0
SMALL
abcg2


@<TRIPOS>ATOM
      1 O01         98.7620   100.9750   111.6790 oh         1 81Q      -0.714000
      2 C02         99.3970   102.2000   111.9500 c6         1 81Q       0.132300
      3 C03        100.3260   102.1430   113.1570 c6         1 81Q       0.133300
      4 O04         99.6010   101.9650   114.3700 os         1 81Q      -0.426100
      5 C05         99.1240   103.0410   115.0030 c          1 81Q       0.597100
      6 C06         98.3910   102.6510   116.2570 c3         1 81Q      -0.135400
      7 C07         98.1070   103.8280   117.1800 c3         1 81Q      -0.067400
      8 C08         97.5310   103.4130   118.5320 c3         1 81Q      -0.071400
      9 C09         98.4510   102.4760   119.3090 c3         1 81Q      -0.088400
     10 C10         98.1450   102.3710   120.7960 c3         1 81Q      -0.073400
     11 C11         99.0900   101.4030   121.4990 c3         1 81Q      -0.079400
     12 C12         99.0240   101.4560   123.0200 c3         1 81Q      -0.075400
     13 C13         97.7000   101.0260   123.6470 c3         1 81Q      -0.070400
     14 C14         97.2780    99.5930   123.3260 c3         1 81Q      -0.070400
     15 C15         98.3420    98.5350   123.6110 c3         1 81Q      -0.076400
     16 C16         98.8580    98.5290   125.0440 c3         1 81Q      -0.075400
     17 C17         99.8720    97.4190   125.2920 c3         1 81Q      -0.076400
     18 C18        100.4650    97.4080   126.6970 c3         1 81Q      -0.074400
     19 C19         99.4430    97.1670   127.8010 c3         1 81Q      -0.077400
     20 C20        100.0860    96.9860   129.1670 c3         1 81Q      -0.093100
     21 O21         99.2510   104.1650   114.5900 o          1 81Q      -0.499000
     22 C22        100.2190   102.5860   110.7020 c6         1 81Q       0.166300
     23 O23        100.1900   103.9730   110.4630 oh         1 81Q      -0.712000
     24 C24        101.6890   102.1930   110.8240 c6         1 81Q       0.184300
     25 O25        102.2190   102.0960   109.5250 oh         1 81Q      -0.727000
     26 C26        101.8600   100.8860   111.5920 c6         1 81Q       0.114300
     27 O27        103.2170   100.5410   111.5140 oh         1 81Q      -0.798000
     28 C93        101.3670   101.0220   113.0540 c6         1 81Q       0.221300
     29 O94        100.8070    99.8190   113.5480 os         1 81Q      -0.601400
     30 P95        101.6950    98.4770   113.8820 p5         1 81Q       1.415800
     31 O96        101.8320    98.5280   115.5130 os         1 81Q      -0.582400
     32 C97        102.7190    99.4120   116.1670 c3         1 81Q       0.230600
     33 C98        101.9330   100.5230   116.8530 c3         1 81Q       0.101300
     34 O99        102.9190   101.3570   117.4820 os         1 81Q      -0.462100
     35 CA0        102.7830   102.6830   117.4340 c          1 81Q       0.597100
     36 CA1        103.9850   103.3700   118.0270 c3         1 81Q      -0.138400
     37 CA2        103.8520   104.8820   118.1570 c3         1 81Q      -0.064400
     38 CA3        103.2850   105.3490   119.4980 c3         1 81Q      -0.043200
     39 CA4        101.9220   104.8160   119.8050 c2         1 81Q      -0.207200
     40 CA5        101.5290   104.1940   120.9160 c2         1 81Q      -0.234200
     41 CA6        102.3540   103.8800   122.1310 c3         1 81Q      -0.012000
     42 CA7        101.8130   104.5840   123.3440 c2         1 81Q      -0.205200
     43 CA8        101.5160   104.0610   124.5330 c2         1 81Q      -0.223200
     44 CA9        101.6850   102.6380   124.9780 c3         1 81Q      -0.018000
     45 CAA        102.6440   102.5390   126.1290 c2         1 81Q      -0.207200
     46 CAB        102.3940   102.0070   127.3240 c2         1 81Q      -0.220200
     47 CAC        101.0860   101.4240   127.7870 c3         1 81Q      -0.012000
     48 CAD        100.2380   102.4920   128.4180 c2         1 81Q      -0.207200
     49 CAE         99.8900   102.6020   129.6980 c2         1 81Q      -0.222200
     50 CAF        100.2030   101.6710   130.8280 c3         1 81Q      -0.040200
     51 CAG         98.9390   101.0440   131.4300 c3         1 81Q      -0.071400
     52 CAH         98.2450   100.0460   130.5120 c3         1 81Q      -0.080400
     53 CAI         96.9400    99.5070   131.0910 c3         1 81Q      -0.075400
     54 CAJ         96.2700    98.4770   130.1930 c3         1 81Q      -0.089100
     55 OAK        101.8360   103.2390   116.9390 o          1 81Q      -0.496000
     56 CAL        100.8980   100.0300   117.8580 c3         1 81Q       0.162600
     57 OAM        101.3080    98.9960   118.7070 os         1 81Q      -0.443000
     58 CAN        102.1820    99.3580   119.7580 c3         1 81Q       0.162600
     59 CAO        102.1100    98.2890   120.8360 c3         1 81Q      -0.084400
     60 CAP        103.1750    98.4410   121.9190 c3         1 81Q      -0.072400
     61 CAQ        103.0680    99.7320   122.7250 c3         1 81Q      -0.077400
     62 CAR        104.1360    99.8800   123.8070 c3         1 81Q      -0.075400
     63 CAS        104.0830    98.8180   124.9010 c3         1 81Q      -0.074400
     64 CAT        104.9350    99.1700   126.1160 c3         1 81Q      -0.078400
     65 CAU        105.0250    98.0470   127.1420 c3         1 81Q      -0.074400
     66 CAV        105.6040    98.5110   128.4760 c3         1 81Q      -0.072400
     67 CAW        106.0100    97.3800   129.4190 c3         1 81Q      -0.070400
     68 CAX        104.9140    96.3570   129.7160 c3         1 81Q      -0.071400
     69 CAY        103.6020    96.9250   130.2540 c3         1 81Q      -0.076400
     70 CAZ        103.7210    97.6850   131.5700 c3         1 81Q      -0.073400
     71 CB0        102.3780    98.1560   132.1270 c3         1 81Q      -0.075400
     72 CB1        101.4740    97.0210   132.5970 c3         1 81Q      -0.075400
     73 CB2        100.1090    97.4750   133.0990 c3         1 81Q      -0.078400
     74 CB3        100.1590    98.3640   134.3390 c3         1 81Q      -0.076400
     75 CB4         98.7750    98.6650   134.8970 c3         1 81Q      -0.091100
     76 OB5        100.8460    97.2920   113.5890 o          1 81Q      -0.802000
     77 OB6        103.0710    98.6400   113.2790 o          1 81Q      -0.802000
     78 H1          98.3470   100.6490   112.4840 ho         1 81Q       0.528000
     79 H2          98.6550   102.9940   112.1200 h1         1 81Q       0.030700
     80 H3         100.8680   103.0920   113.2000 h1         1 81Q       0.072700
     81 H4          97.4560   102.1610   115.9620 hc         1 81Q       0.070700
     82 H5          98.9720   101.8820   116.7640 hc         1 81Q       0.070700
     83 H6          99.0350   104.3810   117.3560 hc         1 81Q       0.053200
     84 H7          97.4220   104.5240   116.6900 hc         1 81Q       0.053200
     85 H8          97.3590   104.3200   119.1190 hc         1 81Q       0.033200
     86 H9          96.5500   102.9460   118.3990 hc         1 81Q       0.033200
     87 H10         98.4160   101.4730   118.8740 hc         1 81Q       0.045700
     88 H11         99.4870   102.8200   119.1910 hc         1 81Q       0.045700
     89 H12         98.2340   103.3640   121.2520 hc         1 81Q       0.033200
     90 H13         97.1050   102.0610   120.9410 hc         1 81Q       0.033200
     91 H14         98.9030   100.3840   121.1400 hc         1 81Q       0.044200
     92 H15        100.1170   101.6300   121.1930 hc         1 81Q       0.044200
     93 H16         99.8280   100.8390   123.4300 hc         1 81Q       0.036200
     94 H17         99.2520   102.4770   123.3460 hc         1 81Q       0.036200
     95 H18         97.7780   101.1480   124.7310 hc         1 81Q       0.032700
     96 H19         96.9020   101.7050   123.3330 hc         1 81Q       0.032700
     97 H20         96.3770    99.3590   123.9030 hc         1 81Q       0.037200
     98 H21         96.9830    99.5230   122.2740 hc         1 81Q       0.037200
     99 H22         97.9250    97.5490   123.3780 hc         1 81Q       0.040700
    100 H23         99.1860    98.6640   122.9260 hc         1 81Q       0.040700
    101 H24         99.3260    99.4910   125.2800 hc         1 81Q       0.034700
    102 H25         98.0090    98.4270   125.7290 hc         1 81Q       0.034700
    103 H26         99.4030    96.4490   125.0910 hc         1 81Q       0.039700
    104 H27        100.6830    97.5180   124.5620 hc         1 81Q       0.039700
    105 H28        101.2370    96.6330   126.7490 hc         1 81Q       0.036700
    106 H29        100.9860    98.3570   126.8820 hc         1 81Q       0.036700
    107 H30         98.7390    98.0020   127.8460 hc         1 81Q       0.037700
    108 H31         98.8490    96.2810   127.5560 hc         1 81Q       0.037700
    109 H32         99.3390    96.8360   129.9450 hc         1 81Q       0.030367
    110 H33        100.7580    96.1260   129.1790 hc         1 81Q       0.030367
    111 H34        100.6750    97.8630   129.4450 hc         1 81Q       0.030367
    112 H35         99.7910   102.0280   109.8580 h1         1 81Q       0.065700
    113 H36         99.2920   104.2240   110.2220 ho         1 81Q       0.496000
    114 H37        102.2100   102.9850   111.3880 h1         1 81Q       0.039700
    115 H38        103.1140   101.7490   109.6060 ho         1 81Q       0.525000
    116 H39        101.2290   100.1240   111.1090 h1         1 81Q       0.063700
    117 H104       102.2250   101.3260   113.6680 h1         1 81Q       0.032700
    118 H105       103.2970    98.8410   116.8990 h1         1 81Q       0.041700
    119 H106       103.4360    99.8600   115.4730 h1         1 81Q       0.041700
    120 H107       101.3930   101.1020   116.0990 h1         1 81Q       0.082700
    121 H108       104.2200   102.9080   118.9900 hc         1 81Q       0.070200
    122 H109       104.8280   103.1210   117.3730 hc         1 81Q       0.070200
    123 H110       104.8420   105.3280   118.0420 hc         1 81Q       0.052700
    124 H111       103.2500   105.2780   117.3370 hc         1 81Q       0.052700
    125 H112       103.9910   105.0940   120.2910 hc         1 81Q       0.039700
    126 H113       103.2350   106.4430   119.4760 hc         1 81Q       0.039700
    127 H114       101.1720   104.9830   119.0370 ha         1 81Q       0.185000
    128 H116       100.4880   103.8850   120.9800 ha         1 81Q       0.176000
    129 H118       102.3660   102.7980   122.2830 hc         1 81Q       0.050200
    130 H119       103.3950   104.1800   121.9800 hc         1 81Q       0.050200
    131 H120       101.6500   105.6500   123.2130 ha         1 81Q       0.167000
    132 H122       101.1300   104.7330   125.2940 ha         1 81Q       0.164000
    133 H124       100.7120   102.2320   125.2590 hc         1 81Q       0.055200
    134 H125       102.0470   102.0200   124.1530 hc         1 81Q       0.055200
    135 H126       103.6300   102.9560   125.9510 ha         1 81Q       0.169000
    136 H128       103.1880   102.0250   128.0640 ha         1 81Q       0.166000
    137 H130       100.5440   100.9810   126.9470 hc         1 81Q       0.051700
    138 H131       101.2760   100.6120   128.4890 hc         1 81Q       0.051700
    139 H132        99.9150   103.2740   127.7350 ha         1 81Q       0.169000
    140 H134        99.2770   103.4540   129.9740 ha         1 81Q       0.162000
    141 H136       100.8900   100.8780   130.5220 hc         1 81Q       0.043200
    142 H137       100.7200   102.2360   131.6110 hc         1 81Q       0.043200
    143 H138        99.2080   100.5440   132.3650 hc         1 81Q       0.036200
    144 H139        98.2380   101.8400   131.7040 hc         1 81Q       0.036200
    145 H140        98.0400   100.5110   129.5430 hc         1 81Q       0.043700
    146 H141        98.9280    99.2110   130.3120 hc         1 81Q       0.043700
    147 H142        97.1300    99.0630   132.0720 hc         1 81Q       0.033700
    148 H143        96.2540   100.3410   131.2670 hc         1 81Q       0.033700
    149 H144        95.3270    98.1270   130.6150 hc         1 81Q       0.031700
    150 H145        96.0580    98.8900   129.2050 hc         1 81Q       0.031700
    151 H146        96.9100    97.6050   130.0530 hc         1 81Q       0.031700
    152 H147       100.5340   100.8910   118.4350 h1         1 81Q       0.052700
    153 H148       100.0470    99.6450   117.2910 h1         1 81Q       0.052700
    154 H149       103.2150    99.4450   119.3970 h1         1 81Q       0.022200
    155 H150       101.9010   100.3390   120.1640 h1         1 81Q       0.022200
    156 H151       101.1170    98.2990   121.2950 hc         1 81Q       0.050700
    157 H152       102.2250    97.3090   120.3630 hc         1 81Q       0.050700
    158 H153       103.0990    97.5830   122.5930 hc         1 81Q       0.038200
    159 H154       104.1700    98.3800   121.4640 hc         1 81Q       0.038200
    160 H155       103.1330   100.5930   122.0540 hc         1 81Q       0.038200
    161 H156       102.0740    99.7840   123.1860 hc         1 81Q       0.038200
    162 H157       105.1280    99.8730   123.3440 hc         1 81Q       0.036200
    163 H158       104.0330   100.8680   124.2690 hc         1 81Q       0.036200
    164 H159       103.0440    98.6830   125.2270 hc         1 81Q       0.038200
    165 H160       104.4000    97.8500   124.5010 hc         1 81Q       0.038200
    166 H161       105.9450    99.4470   125.7940 hc         1 81Q       0.036200
    167 H162       104.5160   100.0650   126.5890 hc         1 81Q       0.036200
    168 H163       104.0270    97.6240   127.3000 hc         1 81Q       0.037700
    169 H164       105.6350    97.2330   126.7340 hc         1 81Q       0.037700
    170 H165       106.4840    99.1330   128.2860 hc         1 81Q       0.035200
    171 H166       104.8820    99.1700   128.9680 hc         1 81Q       0.035200
    172 H167       106.8640    96.8510   128.9840 hc         1 81Q       0.034700
    173 H168       106.3750    97.8130   130.3550 hc         1 81Q       0.034700
    174 H169       104.6970    95.7890   128.8060 hc         1 81Q       0.035700
    175 H170       105.3050    95.6260   130.4320 hc         1 81Q       0.035700
    176 H171       103.1460    97.5820   129.5060 hc         1 81Q       0.039200
    177 H172       102.9020    96.0940   130.3750 hc         1 81Q       0.039200
    178 H173       104.2190    97.0530   132.3150 hc         1 81Q       0.036700
    179 H174       104.3670    98.5550   131.4300 hc         1 81Q       0.036700
    180 H175       102.5620    98.8420   132.9590 hc         1 81Q       0.037200
    181 H176       101.8560    98.7470   131.3630 hc         1 81Q       0.037200
    182 H177       101.3210    96.3060   131.7830 hc         1 81Q       0.037700
    183 H178       101.9850    96.4660   133.3920 hc         1 81Q       0.037700
    184 H179        99.5830    98.0010   132.2940 hc         1 81Q       0.039700
    185 H180        99.5060    96.5900   133.3240 hc         1 81Q       0.039700
    186 H181       100.7630    97.8720   135.1080 hc         1 81Q       0.036200
    187 H182       100.6740    99.3020   134.1110 hc         1 81Q       0.036200
    188 H183        98.8260    99.3180   135.7690 hc         1 81Q       0.030700
    189 H184        98.1490    99.1600   134.1510 hc         1 81Q       0.030700
    190 H185        98.2630    97.7500   135.1970 hc         1 81Q       0.030700
    191 H40        103.3190    99.7450   112.0900 ho         1 81Q       0.596000
@<TRIPOS>BOND
     1     1     2 1   
     2     1    78 1   
     3     2     3 1   
     4     2    22 1   
     5     2    79 1   
     6     3     4 1   
     7     3    28 1   
     8     3    80 1   
     9     4     5 1   
    10     5     6 1   
    11     5    21 2   
    12     6     7 1   
    13     6    81 1   
    14     6    82 1   
    15     7     8 1   
    16     7    83 1   
    17     7    84 1   
    18     8     9 1   
    19     8    85 1   
    20     8    86 1   
    21     9    10 1   
    22     9    87 1   
    23     9    88 1   
    24    10    11 1   
    25    10    89 1   
    26    10    90 1   
    27    11    12 1   
    28    11    91 1   
    29    11    92 1   
    30    12    13 1   
    31    12    93 1   
    32    12    94 1   
    33    13    14 1   
    34    13    95 1   
    35    13    96 1   
    36    14    15 1   
    37    14    97 1   
    38    14    98 1   
    39    15    16 1   
    40    15    99 1   
    41    15   100 1   
    42    16    17 1   
    43    16   101 1   
    44    16   102 1   
    45    17    18 1   
    46    17   103 1   
    47    17   104 1   
    48    18    19 1   
    49    18   105 1   
    50    18   106 1   
    51    19    20 1   
    52    19   107 1   
    53    19   108 1   
    54    20   109 1   
    55    20   110 1   
    56    20   111 1   
    57    22    23 1   
    58    22    24 1   
    59    22   112 1   
    60    23   113 1   
    61    24    25 1   
    62    24    26 1   
    63    24   114 1   
    64    25   115 1   
    65    26    27 1   
    66    26    28 1   
    67    26   116 1   
    68    27   191 1   
    69    28    29 1   
    70    28   117 1   
    71    29    30 1   
    72    30    31 1   
    73    30    76 1   
    74    30    77 1   
    75    31    32 1   
    76    32    33 1   
    77    32   118 1   
    78    32   119 1   
    79    33    34 1   
    80    33    56 1   
    81    33   120 1   
    82    34    35 1   
    83    35    36 1   
    84    35    55 2   
    85    36    37 1   
    86    36   121 1   
    87    36   122 1   
    88    37    38 1   
    89    37   123 1   
    90    37   124 1   
    91    38    39 1   
    92    38   125 1   
    93    38   126 1   
    94    39    40 2   
    95    39   127 1   
    96    40    41 1   
    97    40   128 1   
    98    41    42 1   
    99    41   129 1   
   100    41   130 1   
   101    42    43 2   
   102    42   131 1   
   103    43    44 1   
   104    43   132 1   
   105    44    45 1   
   106    44   133 1   
   107    44   134 1   
   108    45    46 2   
   109    45   135 1   
   110    46    47 1   
   111    46   136 1   
   112    47    48 1   
   113    47   137 1   
   114    47   138 1   
   115    48    49 2   
   116    48   139 1   
   117    49    50 1   
   118    49   140 1   
   119    50    51 1   
   120    50   141 1   
   121    50   142 1   
   122    51    52 1   
   123    51   143 1   
   124    51   144 1   
   125    52    53 1   
   126    52   145 1   
   127    52   146 1   
   128    53    54 1   
   129    53   147 1   
   130    53   148 1   
   131    54   149 1   
   132    54   150 1   
   133    54   151 1   
   134    56    57 1   
   135    56   152 1   
   136    56   153 1   
   137    57    58 1   
   138    58    59 1   
   139    58   154 1   
   140    58   155 1   
   141    59    60 1   
   142    59   156 1   
   143    59   157 1   
   144    60    61 1   
   145    60   158 1   
   146    60   159 1   
   147    61    62 1   
   148    61   160 1   
   149    61   161 1   
   150    62    63 1   
   151    62   162 1   
   152    62   163 1   
   153    63    64 1   
   154    63   164 1   
   155    63   165 1   
   156    64    65 1   
   157    64   166 1   
   158    64   167 1   
   159    65    66 1   
   160    65   168 1   
   161    65   169 1   
   162    66    67 1   
   163    66   170 1   
   164    66   171 1   
   165    67    68 1   
   166    67   172 1   
   167    67   173 1   
   168    68    69 1   
   169    68   174 1   
   170    68   175 1   
   171    69    70 1   
   172    69   176 1   
   173    69   177 1   
   174    70    71 1   
   175    70   178 1   
   176    70   179 1   
   177    71    72 1   
   178    71   180 1   
   179    71   181 1   
   180    72    73 1   
   181    72   182 1   
   182    72   183 1   
   183    73    74 1   
   184    73   184 1   
   185    73   185 1   
   186    74    75 1   
   187    74   186 1   
   188    74   187 1   
   189    75   188 1   
   190    75   189 1   
   191    75   190 1   
@<TRIPOS>SUBSTRUCTURE
     1 81Q         1 TEMP              0 ****  ****    0 ROOT
