@<TRIPOS>MOLECULE
830
   42    43     1     0     0
SMALL
abcg2


@<TRIPOS>ATOM
      1 CAJ         12.6130    58.5200    36.7810 ca         1 830      -0.136500
      2 CAF         11.3750    59.0010    37.1810 ca         1 830      -0.100000
      3 CAE         11.2410    59.7060    38.3710 ca         1 830      -0.142000
      4 CAG         12.3580    59.9280    39.1640 ca         1 830      -0.100000
      5 CAK         13.6010    59.4430    38.7800 ca         1 830      -0.136500
      6 CAV         13.7220    58.7410    37.5890 ca         1 830       0.140100
      7 OAS         14.9740    58.3390    37.2130 os         1 830      -0.263200
      8 CAW         15.2120    57.0410    36.8640 ca         1 830       0.099100
      9 CAM         16.3060    56.8190    36.0380 ca         1 830      -0.139000
     10 CAL         14.4530    55.9740    37.3330 ca         1 830      -0.190000
     11 CAH         14.8060    54.6880    36.9520 ca         1 830      -0.088000
     12 CAI         15.9010    54.4600    36.1290 ca         1 830      -0.098000
     13 CAU         16.6660    55.5280    35.6670 ca         1 830      -0.019300
     14 CAP         17.8820    55.3070    34.8100 c3         1 830      -0.034100
     15 CAN         19.1900    55.5320    35.5740 c3         1 830      -0.074400
     16 CAO         19.3740    54.6200    36.7770 c3         1 830       0.118000
     17 NAR         19.4000    53.2380    36.3710 ns         1 830      -0.546900
     18 CAT         19.3320    52.2150    37.2430 c          1 830       0.635100
     19 OAA         19.1450    52.3760    38.4490 o          1 830      -0.737100
     20 CAQ         19.4940    50.8640    36.5970 c3         1 830      -0.475400
     21 PAX         20.9790    50.7580    35.4320 p5         1 830       1.302500
     22 OAC         20.6770    51.8710    34.3950 o          1 830      -0.911167
     23 OAD         22.1960    51.0560    36.3060 o          1 830      -0.911167
     24 OAB         20.9210    49.3470    34.8510 o          1 830      -0.911167
     25 HAJ         12.7110    57.9830    35.8450 ha         1 830       0.130000
     26 HAF         10.5110    58.8300    36.5520 ha         1 830       0.104000
     27 HAE         10.2730    60.0810    38.6750 ha         1 830       0.101000
     28 HAG         12.2660    60.4780    40.0920 ha         1 830       0.104000
     29 HAK         14.4740    59.6110    39.3970 ha         1 830       0.130000
     30 HAM         16.8840    57.6670    35.6860 ha         1 830       0.117000
     31 HAL         13.6050    56.1320    37.9870 ha         1 830       0.106000
     32 HAH         14.2200    53.8530    37.3120 ha         1 830       0.107000
     33 HAI         16.1660    53.4480    35.8490 ha         1 830       0.149000
     34 HAP         17.8630    54.2960    34.3990 hc         1 830       0.055200
     35 HAPA        17.8580    55.9890    33.9570 hc         1 830       0.055200
     36 HAN         20.0290    55.3990    34.8840 hc         1 830       0.032700
     37 HANA        19.2380    56.5690    35.9170 hc         1 830       0.032700
     38 HAO         20.2980    54.9030    37.2970 h1         1 830       0.015200
     39 HAOA        18.5610    54.7790    37.4890 h1         1 830       0.015200
     40 HNAR        19.8120    52.9770    35.4570 hn         1 830       0.393500
     41 HAQ         19.5560    50.1030    37.3770 hc         1 830       0.035700
     42 HAQA        18.5940    50.6480    36.0120 hc         1 830       0.035700
@<TRIPOS>BOND
     1     1     2 ar  
     2     1     6 ar  
     3     1    25 1   
     4     2     3 ar  
     5     2    26 1   
     6     3     4 ar  
     7     3    27 1   
     8     4     5 ar  
     9     4    28 1   
    10     5     6 ar  
    11     5    29 1   
    12     6     7 1   
    13     7     8 1   
    14     8     9 ar  
    15     8    10 ar  
    16     9    13 ar  
    17     9    30 1   
    18    10    11 ar  
    19    10    31 1   
    20    11    12 ar  
    21    11    32 1   
    22    12    13 ar  
    23    12    33 1   
    24    13    14 1   
    25    14    15 1   
    26    14    34 1   
    27    14    35 1   
    28    15    16 1   
    29    15    36 1   
    30    15    37 1   
    31    16    17 1   
    32    16    38 1   
    33    16    39 1   
    34    17    18 1   
    35    17    40 1   
    36    18    19 2   
    37    18    20 1   
    38    20    21 1   
    39    20    41 1   
    40    20    42 1   
    41    21    22 1   
    42    21    23 1   
    43    21    24 1   
@<TRIPOS>SUBSTRUCTURE
     1 830         1 TEMP              0 ****  ****    0 ROOT
