@<TRIPOS>MOLECULE
84E
   38    39     1     0     0
SMALL
abcg2


@<TRIPOS>ATOM
      1 O5           6.3590    -5.0940     6.2120 os         1 84E      -0.592400
      2 P            7.8810    -4.2770     5.9760 p5         1 84E       1.257900
      3 OP3          8.9080    -5.2850     6.4690 o          1 84E      -0.907167
      4 OP2          7.8320    -4.0670     4.4690 o          1 84E      -0.907167
      5 O3           3.9620    -8.4660     7.1320 oh         1 84E      -0.743000
      6 C5           5.9380    -5.3010     7.5110 c3         1 84E       0.252600
      7 C4           4.6420    -6.1120     7.5040 c5         1 84E       0.323000
      8 S4           4.3800    -6.5030     9.3040 ss         1 84E      -0.506000
      9 C6           2.6050    -6.3890     9.5360 c3         1 84E       0.440000
     10 F1           2.3750    -6.8050    10.7860 f          1 84E      -0.109667
     11 F2           1.8780    -7.1450     8.7190 f          1 84E      -0.109667
     12 F3           2.1350    -5.1470     9.4430 f          1 84E      -0.109667
     13 O4           3.5750    -5.3610     7.0050 os         1 84E      -0.441000
     14 C1           3.0470    -5.9310     5.8200 c5         1 84E       0.336700
     15 N1           2.7690    -4.8580     4.8850 n          1 84E      -0.305000
     16 C10          3.8010    -4.0570     4.4570 cc         1 84E       0.017600
     17 C8           3.6530    -3.0350     3.5990 cd         1 84E      -0.277400
     18 C7           4.8000    -2.1920     3.1450 c3         1 84E      -0.029900
     19 C9           2.3200    -2.7480     3.1060 c          1 84E       0.585200
     20 O1           2.0350    -1.8610     2.3230 o          1 84E      -0.580000
     21 N3           1.3350    -3.5840     3.6060 ns         1 84E      -0.474500
     22 C2           1.4710    -4.6280     4.4820 c          1 84E       0.617000
     23 O2           0.5210    -5.2870     4.8520 o          1 84E      -0.603000
     24 C3           4.7250    -7.4020     6.6380 c5         1 84E       0.154300
     25 C11          4.0870    -6.9370     5.3410 c5         1 84E      -0.112400
     26 H5           6.6790    -5.8580     8.1070 h1         1 84E       0.031700
     27 H5'          5.7440    -4.3630     8.0500 h1         1 84E       0.031700
     28 H1           2.0950    -6.4150     6.0300 h2         1 84E       0.088700
     29 H6           4.7730    -4.2970     4.8710 h4         1 84E       0.302000
     30 H72          5.7370    -2.5600     3.5590 hc         1 84E       0.058033
     31 H73          4.8890    -2.1980     2.0570 hc         1 84E       0.058033
     32 H71          4.6780    -1.1510     3.4510 hc         1 84E       0.058033
     33 H3           0.3880    -3.4080     3.2910 hn         1 84E       0.314500
     34 H4           5.7730    -7.6880     6.5050 h1         1 84E       0.101700
     35 H2           3.6280    -7.7580     4.7910 hc         1 84E       0.087700
     36 H2'          4.8320    -6.4740     4.6980 hc         1 84E       0.087700
     37 OP1          7.7600    -3.0170     6.8220 o          1 84E      -0.907167
     38 HO3          4.3350    -8.7550     7.9720 ho         1 84E       0.510000
@<TRIPOS>BOND
     1     1     2 1   
     2     1     6 1   
     3     2     3 1   
     4     2     4 1   
     5     2    37 1   
     6     5    24 1   
     7     5    38 1   
     8     6     7 1   
     9     6    26 1   
    10     6    27 1   
    11     7     8 1   
    12     7    13 1   
    13     7    24 1   
    14     8     9 1   
    15     9    10 1   
    16     9    11 1   
    17     9    12 1   
    18    13    14 1   
    19    14    15 1   
    20    14    25 1   
    21    14    28 1   
    22    15    16 1   
    23    15    22 1   
    24    16    17 2   
    25    16    29 1   
    26    17    18 1   
    27    17    19 1   
    28    18    30 1   
    29    18    31 1   
    30    18    32 1   
    31    19    20 2   
    32    19    21 1   
    33    21    22 1   
    34    21    33 1   
    35    22    23 2   
    36    24    25 1   
    37    24    34 1   
    38    25    35 1   
    39    25    36 1   
@<TRIPOS>SUBSTRUCTURE
     1 84E         1 TEMP              0 ****  ****    0 ROOT
