@<TRIPOS>MOLECULE
84T
   55    57     1     0     0
SMALL
abcg2


@<TRIPOS>ATOM
      1 O1P        -49.3970    33.1590   -40.6860 o          1 84T      -0.809000
      2 P          -49.3930    32.4370   -39.3810 p5         1 84T       1.374800
      3 O2P        -48.7850    31.0870   -39.2460 o          1 84T      -0.809000
      4 N          -48.6600    33.5460   -38.2790 ns         1 84T      -0.569900
      5 C          -48.5090    33.4280   -36.9430 c          1 84T       0.627100
      6 CA         -47.8530    34.6240   -36.2420 c3         1 84T       0.068300
      7 CB         -48.7900    35.1590   -35.1540 c3         1 84T       0.159300
      8 CG         -48.1880    36.3130   -34.3390 c3         1 84T      -0.098700
      9 CD2        -46.8760    35.9030   -33.6640 c3         1 84T      -0.087100
     10 CD1        -49.1860    36.8090   -33.2900 c3         1 84T      -0.087100
     11 OHB        -49.9980    35.5490   -35.8210 oh         1 84T      -0.647000
     12 OH         -47.5070    35.6290   -37.1900 oh         1 84T      -0.648000
     13 O          -48.8480    32.4530   -36.2810 o          1 84T      -0.621100
     14 O5         -50.8920    32.3090   -38.7870 os         1 84T      -0.603400
     15 C5         -51.7600    33.4430   -38.7460 c3         1 84T       0.222600
     16 C4         -52.8780    33.2060   -37.7590 c5         1 84T       0.160300
     17 C3         -52.4690    32.8120   -36.3490 c5         1 84T      -0.107400
     18 C2         -53.6830    32.0330   -35.8710 c5         1 84T       0.132300
     19 O2         -53.3580    31.1730   -34.7990 oh         1 84T      -0.694000
     20 O4         -53.7240    32.1190   -38.2320 os         1 84T      -0.446000
     21 C1         -54.1450    31.3090   -37.1660 c5         1 84T       0.288300
     22 N9         -53.5810    29.9690   -37.2950 na         1 84T      -0.298300
     23 C9         -54.1860    28.8100   -36.8710 ca         1 84T       0.105500
     24 N3         -55.4010    28.6540   -36.3310 nb         1 84T      -0.236000
     25 C10        -55.6600    27.3800   -36.0470 ca         1 84T       0.152900
     26 C8         -52.3350    29.6110   -37.7570 cc         1 84T       0.471700
     27 N7         -52.1100    28.3200   -37.6760 nd         1 84T      -0.568100
     28 C7         -53.2610    27.7960   -37.1180 ca         1 84T      -0.076600
     29 C6         -53.6510    26.4900   -36.7710 ca         1 84T       0.432900
     30 N1         -54.8730    26.3140   -36.2320 nb         1 84T      -0.314000
     31 N6         -52.8510    25.4220   -36.9350 nv         1 84T      -1.072900
     32 H          -48.3270    34.4180   -38.6630 hn         1 84T       0.315500
     33 HA         -46.9560    34.2270   -35.7670 h1         1 84T       0.049700
     34 HB         -49.0000    34.3250   -34.4780 h1         1 84T       0.055700
     35 HH         -46.6550    36.0080   -36.9520 ho         1 84T       0.432000
     36 HG         -47.9850    37.1310   -35.0350 hc         1 84T       0.060700
     37 HHB        -50.7090    35.5870   -35.1780 ho         1 84T       0.428000
     38 HD21       -46.5200    36.7060   -33.0190 hc         1 84T       0.030867
     39 HD22       -47.0190    35.0150   -33.0450 hc         1 84T       0.030867
     40 HD23       -46.0870    35.6870   -34.3850 hc         1 84T       0.030867
     41 HD11       -48.7620    37.6420   -32.7290 hc         1 84T       0.030867
     42 HD12       -50.1160    37.1540   -33.7400 hc         1 84T       0.030867
     43 HD13       -49.4240    36.0130   -32.5800 hc         1 84T       0.030867
     44 H5'1       -51.2110    34.3330   -38.4330 h1         1 84T       0.041700
     45 H5'2       -52.1740    33.6210   -39.7380 h1         1 84T       0.041700
     46 H4         -53.4880    34.1130   -37.7410 h1         1 84T       0.032700
     47 H3'1       -51.5920    32.1670   -36.3660 hc         1 84T       0.089200
     48 H3'2       -52.2540    33.6770   -35.7280 hc         1 84T       0.089200
     49 H2         -54.4820    32.7190   -35.5820 h1         1 84T       0.027700
     50 HC         -54.1690    30.8290   -34.4120 ho         1 84T       0.505000
     51 H8         -51.6580    30.3470   -38.1560 h5         1 84T       0.131800
     52 H1         -56.6290    27.1750   -35.6090 h5         1 84T       0.029100
     53 HN61       -53.2150    24.5000   -36.7630 hn         1 84T       0.499000
     54 HN62       -51.9820    25.5120   -37.4290 hn         1 84T       0.499000
     55 HC1        -55.2250    31.1810   -37.1930 h2         1 84T       0.085700
@<TRIPOS>BOND
     1     1     2 1   
     2     2     3 1   
     3     2     4 1   
     4     2    14 1   
     5     4     5 1   
     6     4    32 1   
     7     5     6 1   
     8     5    13 2   
     9     6     7 1   
    10     6    12 1   
    11     6    33 1   
    12     7     8 1   
    13     7    11 1   
    14     7    34 1   
    15     8     9 1   
    16     8    10 1   
    17     8    36 1   
    18     9    38 1   
    19     9    39 1   
    20     9    40 1   
    21    10    41 1   
    22    10    42 1   
    23    10    43 1   
    24    11    37 1   
    25    12    35 1   
    26    14    15 1   
    27    15    16 1   
    28    15    44 1   
    29    15    45 1   
    30    16    17 1   
    31    16    20 1   
    32    16    46 1   
    33    17    18 1   
    34    17    47 1   
    35    17    48 1   
    36    18    19 1   
    37    18    21 1   
    38    18    49 1   
    39    19    50 1   
    40    20    21 1   
    41    21    22 1   
    42    21    55 1   
    43    22    23 1   
    44    22    26 1   
    45    23    24 ar  
    46    23    28 ar  
    47    24    25 ar  
    48    25    30 ar  
    49    25    52 1   
    50    26    27 2   
    51    26    51 1   
    52    27    28 1   
    53    28    29 ar  
    54    29    30 ar  
    55    29    31 1   
    56    31    53 1   
    57    31    54 1   
@<TRIPOS>SUBSTRUCTURE
     1 84T         1 TEMP              0 ****  ****    0 ROOT
