@<TRIPOS>MOLECULE
85Y
   54    57     1     0     0
SMALL
abcg2


@<TRIPOS>ATOM
      1 C2          96.9590    53.9310   115.8120 c          1 85Y       0.619000
      2 C20         98.8190    50.5600   113.8760 c          1 85Y       0.649300
      3 C24        100.1950    49.4440   111.0690 ca         1 85Y      -0.082300
      4 C30         98.4550    51.1600   108.2580 ca         1 85Y      -0.089000
      5 C33         99.2570    48.8060   106.9900 ca         1 85Y      -0.100000
      6 C4          98.7590    53.1230   114.3170 c          1 85Y       0.617200
      7 C5          98.2630    51.7790   114.5260 cc         1 85Y      -0.416400
      8 C23        100.6110    49.6330   112.5080 c3         1 85Y       0.151300
      9 C25         99.4920    50.3840   110.3660 ca         1 85Y      -0.089000
     10 C26         99.1680    50.1900   109.0010 ca         1 85Y      -0.031000
     11 O4          99.7070    53.4480   113.6200 o          1 85Y      -0.602000
     12 N3          98.0430    54.0920   114.9900 ns         1 85Y      -0.467500
     13 O2          96.3890    54.8630   116.3250 o          1 85Y      -0.536000
     14 C6          97.2080    51.6080   115.3590 cd         1 85Y       0.120600
     15 N1          96.5730    52.6080   116.0040 n          1 85Y      -0.276000
     16 C1          95.4290    52.3900   116.8910 c5         1 85Y       0.340700
     17 O1          95.8170    52.6800   118.2030 os         1 85Y      -0.437000
     18 C7          94.8810    50.9750   116.9540 c5         1 85Y      -0.126400
     19 C3          94.0860    51.0530   118.2460 c5         1 85Y       0.137300
     20 O3          92.8260    51.6170   117.9510 oh         1 85Y      -0.760000
     21 C8          94.9610    51.9820   119.1130 c5         1 85Y       0.127300
     22 C9          95.7750    51.2760   120.1760 c3         1 85Y       0.244600
     23 O5          96.5410    50.2490   119.6390 os         1 85Y      -0.584400
     24 P           97.3260    49.1940   120.7620 p5         1 85Y       1.265900
     25 OP3         96.1790    48.4940   121.4850 o          1 85Y      -0.918833
     26 OP2         98.1270    48.3150   119.8120 o          1 85Y      -0.918833
     27 O21         98.2540    49.4810   113.9940 o          1 85Y      -0.612100
     28 N22         99.9610    50.7190   113.1890 ns         1 85Y      -0.511900
     29 C27         99.5760    48.9960   108.3540 ca         1 85Y      -0.041000
     30 C28        100.2960    48.0330   109.1010 ca         1 85Y      -0.112000
     31 C29        100.5950    48.2520   110.4150 ca         1 85Y      -0.093000
     32 C31         98.1640    50.9530   106.9370 ca         1 85Y      -0.123000
     33 C32         98.5680    49.7640   106.2950 ca         1 85Y      -0.121000
     34 H1          98.1430    52.0730   108.7510 ha         1 85Y       0.115000
     35 H2          99.5700    47.8910   106.5000 ha         1 85Y       0.103000
     36 H3         100.4450    48.7080   113.0610 h1         1 85Y       0.065200
     37 H4         101.6880    49.8170   112.5410 h1         1 85Y       0.065200
     38 H5          99.1750    51.3030   110.8460 ha         1 85Y       0.128000
     39 H6          98.3420    55.0500   114.8540 hn         1 85Y       0.328500
     40 H7          96.8310    50.6100   115.5250 h4         1 85Y       0.258000
     41 H8          94.6440    53.0720   116.5490 h2         1 85Y       0.054700
     42 H9          94.2800    50.6950   116.0900 hc         1 85Y       0.086700
     43 H10         95.6720    50.2400   117.0980 hc         1 85Y       0.086700
     44 H11         93.9770    50.0670   118.7110 h1         1 85Y       0.102700
     45 H12         92.3420    51.7320   118.7750 ho         1 85Y       0.497000
     46 H13         94.3170    52.7120   119.6230 h1         1 85Y       0.015700
     47 H14         96.3890    52.0280   120.6940 h1         1 85Y       0.010700
     48 H15         95.0510    50.9130   120.9220 h1         1 85Y       0.010700
     49 H18        100.3470    51.6500   113.1120 hn         1 85Y       0.345500
     50 H19        100.6060    47.1150   108.6160 ha         1 85Y       0.104000
     51 H20        101.1470    47.5040   110.9730 ha         1 85Y       0.114000
     52 H21         97.6200    51.7030   106.3780 ha         1 85Y       0.103000
     53 H22         98.3300    49.6110   105.2500 ha         1 85Y       0.100000
     54 OP1         98.1530    50.1240   121.6440 o          1 85Y      -0.918833
@<TRIPOS>BOND
     1     1    12 1   
     2     1    13 2   
     3     1    15 1   
     4     2     7 1   
     5     2    27 2   
     6     2    28 1   
     7     3     8 1   
     8     3     9 ar  
     9     3    31 ar  
    10     4    10 ar  
    11     4    32 ar  
    12     4    34 1   
    13     5    29 ar  
    14     5    33 ar  
    15     5    35 1   
    16     6     7 1   
    17     6    11 2   
    18     6    12 1   
    19     7    14 2   
    20     8    28 1   
    21     8    36 1   
    22     8    37 1   
    23     9    10 ar  
    24     9    38 1   
    25    10    29 ar  
    26    12    39 1   
    27    14    15 1   
    28    14    40 1   
    29    15    16 1   
    30    16    17 1   
    31    16    18 1   
    32    16    41 1   
    33    17    21 1   
    34    18    19 1   
    35    18    42 1   
    36    18    43 1   
    37    19    20 1   
    38    19    21 1   
    39    19    44 1   
    40    20    45 1   
    41    21    22 1   
    42    21    46 1   
    43    22    23 1   
    44    22    47 1   
    45    22    48 1   
    46    23    24 1   
    47    24    25 1   
    48    24    26 1   
    49    24    54 1   
    50    28    49 1   
    51    29    30 ar  
    52    30    31 ar  
    53    30    50 1   
    54    31    51 1   
    55    32    33 ar  
    56    32    52 1   
    57    33    53 1   
@<TRIPOS>SUBSTRUCTURE
     1 85Y         1 TEMP              0 ****  ****    0 ROOT
