@<TRIPOS>MOLECULE
8AN
   36    38     1     0     0
SMALL
abcg2


@<TRIPOS>ATOM
      1 O3P         77.4050   114.9000    94.8030 o          1 8AN      -0.917500
      2 P           78.1530   115.6070    95.9310 p5         1 8AN       1.258900
      3 O1P         79.6570   115.3680    95.9390 o          1 8AN      -0.917500
      4 O2P         77.7180   117.0510    96.1720 o          1 8AN      -0.917500
      5 O5          77.6820   114.7710    97.3660 os         1 8AN      -0.556400
      6 C5          76.5560   115.1680    98.0750 c3         1 8AN       0.278600
      7 C4          75.2260   114.9710    97.3660 c5         1 8AN       0.108300
      8 O4          74.9990   113.5880    97.1130 os         1 8AN      -0.388000
      9 C1          73.6590   113.2420    97.3010 c5         1 8AN       0.285300
     10 N9          73.5760   112.1650    98.2680 na         1 8AN      -0.268300
     11 C9          73.2310   110.8710    97.9970 ca         1 8AN       0.132500
     12 N3          72.8460   110.3470    96.8360 nb         1 8AN      -0.182000
     13 C2          72.5990   109.0530    96.9410 ca         1 8AN       0.155900
     14 N1          72.6900   108.2780    98.0190 nb         1 8AN      -0.323000
     15 C6          73.0760   108.8200    99.1790 ca         1 8AN       0.432900
     16 N6          73.1550   108.0470   100.2650 nv         1 8AN      -1.083900
     17 C7          73.3720   110.1950    99.1990 ca         1 8AN      -0.093600
     18 N7          73.8020   111.0440   100.1860 nc         1 8AN      -0.600100
     19 C8          73.9150   112.1960    99.5940 cd         1 8AN       0.434700
     20 C10         72.9080   114.5130    97.7230 c5         1 8AN       0.128300
     21 O2          72.3020   115.0870    96.6030 oh         1 8AN      -0.730000
     22 C3          74.0430   115.4330    98.2150 c5         1 8AN       0.084500
     23 N2          73.7000   116.8190    97.9610 n8         1 8AN      -1.032200
     24 H5          76.5170   114.5920    99.0100 h1         1 8AN      -0.024300
     25 H5'A        76.6020   116.2280    98.3650 h1         1 8AN      -0.024300
     26 H4          75.2270   115.5190    96.4170 h1         1 8AN       0.125700
     27 H1          73.2250   112.8380    96.3820 h2         1 8AN       0.111700
     28 H2          72.2820   108.5520    96.0320 h5         1 8AN       0.032100
     29 HN6         73.0130   107.0540   100.1860 hn         1 8AN       0.492000
     30 HN6A        73.5220   108.4060   101.1290 hn         1 8AN       0.492000
     31 H8          74.2440   113.1040   100.0770 h5         1 8AN       0.071800
     32 H6          72.1710   114.2970    98.5070 h1         1 8AN       0.026700
     33 HO2         72.5320   116.0360    96.6780 ho         1 8AN       0.547000
     34 H3          74.2480   115.2360    99.2750 h1         1 8AN       0.023700
     35 HN3         73.2430   117.2340    98.7620 hn         1 8AN       0.419500
     36 HN3A        74.5230   117.3750    97.7690 hn         1 8AN       0.419500
@<TRIPOS>BOND
     1     1     2 1   
     2     2     3 1   
     3     2     4 1   
     4     2     5 1   
     5     5     6 1   
     6     6     7 1   
     7     6    24 1   
     8     6    25 1   
     9     7     8 1   
    10     7    22 1   
    11     7    26 1   
    12     8     9 1   
    13     9    10 1   
    14     9    20 1   
    15     9    27 1   
    16    10    11 1   
    17    10    19 1   
    18    11    12 ar  
    19    11    17 ar  
    20    12    13 ar  
    21    13    14 ar  
    22    13    28 1   
    23    14    15 ar  
    24    15    16 1   
    25    15    17 ar  
    26    16    29 1   
    27    16    30 1   
    28    17    18 1   
    29    18    19 2   
    30    19    31 1   
    31    20    21 1   
    32    20    22 1   
    33    20    32 1   
    34    21    33 1   
    35    22    23 1   
    36    22    34 1   
    37    23    35 1   
    38    23    36 1   
@<TRIPOS>SUBSTRUCTURE
     1 8AN         1 TEMP              0 ****  ****    0 ROOT
