@<TRIPOS>MOLECULE
8JJ
   89    95     1     0     0
SMALL
abcg2


@<TRIPOS>ATOM
      1 C5          19.3350    77.8170    16.9830 c5         1 8JJ      -0.097400
      2 N4          14.1440    79.4540    19.1920 nv         1 8JJ      -1.071900
      3 C3          19.9820    80.0330    16.3310 c5         1 8JJ      -0.062400
      4 N2          14.5750    80.9560    17.4950 nb         1 8JJ      -0.334000
      5 C6          17.9380    79.7570    17.8650 c6         1 8JJ       0.188300
      6 C1          20.3680    77.7370    15.8320 c5         1 8JJ       0.177000
      7 O7          20.1580    86.4150    20.5800 o          1 8JJ      -0.790000
      8 C8          18.7460    80.9770    19.8810 c6         1 8JJ      -0.024700
      9 C9          18.4620    82.0510    20.9660 c6         1 8JJ      -0.104000
     10 C10         16.9510    82.0830    21.2750 c3         1 8JJ      -0.083100
     11 C12         16.5430    86.1040    21.8230 c3         1 8JJ       0.227600
     12 C17         13.3090    83.2030    21.0490 cc         1 8JJ       0.401700
     13 C16         13.7510    85.3930    19.7910 c5         1 8JJ       0.309300
     14 C15         12.9740    86.1970    20.8300 c5         1 8JJ       0.095300
     15 C14         14.0420    86.4230    21.9110 c5         1 8JJ       0.085300
     16 C13         15.3140    86.5630    21.0760 c5         1 8JJ       0.159300
     17 C11         18.7820    83.4840    20.5510 c          1 8JJ       0.659100
     18 C22         19.1820    81.6130    22.2500 c6         1 8JJ      -0.049400
     19 C23         20.6660    81.3710    22.0470 c6         1 8JJ      -0.072400
     20 C24         20.9000    80.3120    20.9770 c6         1 8JJ      -0.072400
     21 C25         20.2370    80.6390    19.6220 c6         1 8JJ      -0.020000
     22 C26         21.0230    81.7910    18.9870 c3         1 8JJ      -0.082100
     23 C7          17.9800    81.1090    18.5680 c6         1 8JJ      -0.103400
     24 O1          17.1490    79.7860    16.6960 oh         1 8JJ      -0.685000
     25 C27         20.2510    79.3280    18.7700 c6         1 8JJ      -0.040700
     26 C28         21.6570    78.7940    18.4170 c6         1 8JJ      -0.063400
     27 C29         22.1770    79.1340    17.0180 c6         1 8JJ      -0.066400
     28 C2          21.1060    79.0830    15.9320 c5         1 8JJ      -0.052700
     29 C4          19.3440    79.2790    17.5100 c5         1 8JJ      -0.029000
     30 O           19.7160    77.7690    14.5640 oh         1 8JJ      -0.658000
     31 C           21.2520    76.4980    15.8970 c3         1 8JJ      -0.108100
     32 O2          19.0800    84.2560    21.5940 os         1 8JJ      -0.567500
     33 P           19.1710    85.9570    21.5920 p5         1 8JJ       1.403800
     34 O8          19.2780    86.2670    23.0460 o          1 8JJ      -0.790000
     35 O3          17.6870    86.3340    21.0260 os         1 8JJ      -0.574400
     36 O4          15.0980    85.7640    19.9200 os         1 8JJ      -0.400000
     37 O5          12.6190    87.4090    20.2260 oh         1 8JJ      -0.704000
     38 O6          13.8280    87.5750    22.6750 oh         1 8JJ      -0.699000
     39 N           13.6160    83.9550    19.9430 na         1 8JJ      -0.296300
     40 C21         13.9510    83.0610    18.9670 ca         1 8JJ       0.146500
     41 C18         13.8150    81.8110    19.5470 ca         1 8JJ      -0.107600
     42 N1          13.4070    81.9230    20.8490 nd         1 8JJ      -0.561100
     43 N3          14.3420    83.3190    17.7200 nb         1 8JJ      -0.187000
     44 C20         14.6260    82.2150    17.0580 ca         1 8JJ       0.187900
     45 C19         14.1730    80.7090    18.7490 ca         1 8JJ       0.450900
     46 H1          18.3460    77.5470    16.6070 hc         1 8JJ       0.042700
     47 H2          19.5610    77.1040    17.7810 hc         1 8JJ       0.042700
     48 H3          14.4490    78.6980    18.6010 hn         1 8JJ       0.504000
     49 H4          13.8890    79.2440    20.1410 hn         1 8JJ       0.504000
     50 H5          20.3490    81.0250    16.5850 hc         1 8JJ       0.067200
     51 H6          19.2640    80.1530    15.5200 hc         1 8JJ       0.067200
     52 H7          17.5130    79.0290    18.5800 h1         1 8JJ       0.002700
     53 H8          18.3430    80.0700    20.3600 hc         1 8JJ       0.019700
     54 H9          16.7510    82.6550    22.1830 hc         1 8JJ       0.034700
     55 H10         16.3660    82.5240    20.4700 hc         1 8JJ       0.034700
     56 H11         16.5840    81.0680    21.4370 hc         1 8JJ       0.034700
     57 H12         16.4350    85.0420    22.0720 h1         1 8JJ       0.028700
     58 H13         16.5980    86.6610    22.7650 h1         1 8JJ       0.028700
     59 H15         13.4050    85.6220    18.7810 h2         1 8JJ       0.121700
     60 H16         12.0920    85.6630    21.2050 h1         1 8JJ       0.047700
     61 H17         14.1140    85.5320    22.5490 h1         1 8JJ       0.048700
     62 H18         15.4410    87.6120    20.7770 h1         1 8JJ       0.091700
     63 H19         19.0040    82.3260    23.0560 hc         1 8JJ       0.041200
     64 H20         18.7140    80.6740    22.5670 hc         1 8JJ       0.041200
     65 H21         21.1170    81.0400    22.9850 hc         1 8JJ       0.046200
     66 H22         21.1720    82.3060    21.7890 hc         1 8JJ       0.046200
     67 H23         20.4990    79.3610    21.3480 hc         1 8JJ       0.024700
     68 H24         21.9740    80.1610    20.8460 hc         1 8JJ       0.024700
     69 H25         21.1910    82.6030    19.6950 hc         1 8JJ       0.042367
     70 H26         22.0100    81.4500    18.6720 hc         1 8JJ       0.042367
     71 H27         20.5310    82.2270    18.1220 hc         1 8JJ       0.042367
     72 H28         18.4260    81.8560    17.9100 hc         1 8JJ       0.063700
     73 H29         16.9580    81.4380    18.7620 hc         1 8JJ       0.063700
     74 H30         16.2480    80.0550    16.9390 ho         1 8JJ       0.468000
     75 H31         19.8120    78.5850    19.4500 hc         1 8JJ       0.026700
     76 H32         21.6340    77.7070    18.5220 hc         1 8JJ       0.029700
     77 H33         22.3910    79.1240    19.1530 hc         1 8JJ       0.029700
     78 H34         23.0080    78.4640    16.7770 hc         1 8JJ       0.035700
     79 H35         22.5980    80.1430    17.0090 hc         1 8JJ       0.035700
     80 H36         21.5630    79.3370    14.9710 hc         1 8JJ       0.061700
     81 H37         19.1340    77.0040    14.5100 ho         1 8JJ       0.430000
     82 H38         21.7760    76.4090    16.8470 hc         1 8JJ       0.033700
     83 H39         20.6480    75.5940    15.7800 hc         1 8JJ       0.033700
     84 H40         21.9990    76.5070    15.1010 hc         1 8JJ       0.033700
     85 H42         12.5700    88.0790    20.9200 ho         1 8JJ       0.524000
     86 H43         13.2410    87.3600    23.4080 ho         1 8JJ       0.504000
     87 H44         14.9570    82.3370    16.0320 h5         1 8JJ       0.053100
     88 O9          18.6730    83.9080    19.4290 o          1 8JJ      -0.488000
     89 H14         12.9970    83.6470    21.9820 h5         1 8JJ       0.056800
@<TRIPOS>BOND
     1     1     6 1   
     2     1    29 1   
     3     1    46 1   
     4     1    47 1   
     5     2    45 1   
     6     2    48 1   
     7     2    49 1   
     8     3    28 1   
     9     3    29 1   
    10     3    50 1   
    11     3    51 1   
    12     4    44 ar  
    13     4    45 ar  
    14     5    23 1   
    15     5    24 1   
    16     5    29 1   
    17     5    52 1   
    18     6    28 1   
    19     6    30 1   
    20     6    31 1   
    21     7    33 1   
    22     8     9 1   
    23     8    21 1   
    24     8    23 1   
    25     8    53 1   
    26     9    10 1   
    27     9    17 1   
    28     9    18 1   
    29    10    54 1   
    30    10    55 1   
    31    10    56 1   
    32    11    16 1   
    33    11    35 1   
    34    11    57 1   
    35    11    58 1   
    36    12    39 1   
    37    12    42 2   
    38    12    89 1   
    39    13    14 1   
    40    13    36 1   
    41    13    39 1   
    42    13    59 1   
    43    14    15 1   
    44    14    37 1   
    45    14    60 1   
    46    15    16 1   
    47    15    38 1   
    48    15    61 1   
    49    16    36 1   
    50    16    62 1   
    51    17    32 1   
    52    17    88 2   
    53    18    19 1   
    54    18    63 1   
    55    18    64 1   
    56    19    20 1   
    57    19    65 1   
    58    19    66 1   
    59    20    21 1   
    60    20    67 1   
    61    20    68 1   
    62    21    22 1   
    63    21    25 1   
    64    22    69 1   
    65    22    70 1   
    66    22    71 1   
    67    23    72 1   
    68    23    73 1   
    69    24    74 1   
    70    25    26 1   
    71    25    29 1   
    72    25    75 1   
    73    26    27 1   
    74    26    76 1   
    75    26    77 1   
    76    27    28 1   
    77    27    78 1   
    78    27    79 1   
    79    28    80 1   
    80    30    81 1   
    81    31    82 1   
    82    31    83 1   
    83    31    84 1   
    84    32    33 1   
    85    33    34 1   
    86    33    35 1   
    87    37    85 1   
    88    38    86 1   
    89    39    40 1   
    90    40    41 ar  
    91    40    43 ar  
    92    41    42 1   
    93    41    45 ar  
    94    43    44 ar  
    95    44    87 1   
@<TRIPOS>SUBSTRUCTURE
     1 8JJ         1 TEMP              0 ****  ****    0 ROOT
