@<TRIPOS>MOLECULE
GMS
   36    37     1     0     0
SMALL
abcg2


@<TRIPOS>ATOM
      1 P            2.8230    -1.5960    -0.4780 p4         1 GMS       1.400900
      2 OP1          2.3740    -2.3950     0.7000 o          1 GMS      -0.734500
      3 SE           4.9250    -0.8480     0.1470 s          1 GMS      -0.920000
      4 O5           1.9650    -0.2250    -0.6080 os         1 GMS      -0.573400
      5 N9          -2.4570     0.1710     0.2830 na         1 GMS      -0.189500
      6 C4          -3.7470     0.0680    -0.1770 cc         1 GMS       0.139400
      7 N3          -4.5030     1.0660    -0.6700 nc         1 GMS      -0.696100
      8 C2          -5.7080     0.6790    -1.0370 cd         1 GMS       0.716800
      9 N2          -6.5610     1.5650    -1.5930 nv         1 GMS      -1.051200
     10 N1          -6.1420    -0.6150    -0.9150 ns         1 GMS      -0.459400
     11 C6          -5.3940    -1.6960    -0.4060 c          1 GMS       0.520500
     12 O6          -5.8940    -2.8170    -0.3510 o          1 GMS      -0.533000
     13 C5          -4.0920    -1.2700    -0.0150 cd         1 GMS       0.098500
     14 N7          -3.0340    -1.9790     0.5280 nd         1 GMS      -0.605000
     15 C8          -2.0840    -1.0970     0.6910 cc         1 GMS       0.436400
     16 C9          -1.1210     1.7800     1.6640 c5         1 GMS      -0.158400
     17 C10          1.5990     0.5180     0.5560 c3         1 GMS       0.201600
     18 C7           0.6930     1.6570     0.1330 c5         1 GMS       0.163300
     19 O4          -0.4910     1.1600    -0.5250 os         1 GMS      -0.431000
     20 C1          -1.6430     1.3720     0.2880 c5         1 GMS       0.311300
     21 C3           0.1940     2.4740     1.3250 c5         1 GMS       0.132300
     22 O3          -0.0050     3.8140     0.8720 oh         1 GMS      -0.716000
     23 OP2          2.8940    -2.1640    -1.8530 o          1 GMS      -0.554000
     24 HS           5.2070    -0.1720    -1.1310 hs         1 GMS       0.147000
     25 H21         -6.3120     2.5390    -1.5360 hn         1 GMS       0.494000
     26 H22         -7.5410     1.3470    -1.6730 hn         1 GMS       0.494000
     27 H1          -7.0780    -0.8480    -1.2220 hn         1 GMS       0.314500
     28 H8          -1.1000    -1.2980     1.0820 h5         1 GMS       0.085100
     29 H2          -1.8170     2.4280     2.1940 hc         1 GMS       0.067700
     30 H2'         -0.9330     0.8980     2.2780 hc         1 GMS       0.067700
     31 H5           1.0970    -0.1380     1.2700 h1         1 GMS       0.042200
     32 H5'          2.4950     0.9300     1.0280 h1         1 GMS       0.042200
     33 H4           1.2180     2.2980    -0.5770 h1         1 GMS       0.098700
     34 H6          -2.2640     2.1510    -0.1540 h2         1 GMS       0.093700
     35 H3           0.9000     2.4530     2.1580 h1         1 GMS       0.060700
     36 HO3         -0.3900     4.3240     1.5960 ho         1 GMS       0.495000
@<TRIPOS>BOND
     1     1     2 1   
     2     1     4 1   
     3     1    23 2   
     4     3    24 1   
     5     4    17 1   
     6     5     6 1   
     7     5    15 1   
     8     5    20 1   
     9     6     7 1   
    10     6    13 2   
    11     7     8 2   
    12     8     9 1   
    13     8    10 1   
    14     9    25 1   
    15     9    26 1   
    16    10    11 1   
    17    10    27 1   
    18    11    12 2   
    19    11    13 1   
    20    13    14 1   
    21    14    15 2   
    22    15    28 1   
    23    16    20 1   
    24    16    21 1   
    25    16    29 1   
    26    16    30 1   
    27    17    18 1   
    28    17    31 1   
    29    17    32 1   
    30    18    19 1   
    31    18    21 1   
    32    18    33 1   
    33    19    20 1   
    34    20    34 1   
    35    21    22 1   
    36    21    35 1   
    37    22    36 1   
@<TRIPOS>SUBSTRUCTURE
     1 GMS         1 TEMP              0 ****  ****    0 ROOT
