@<TRIPOS>MOLECULE
GPH
   31    31     1     0     0
SMALL
abcg2


@<TRIPOS>ATOM
      1 C1          58.2950    58.7920    55.6350 c6         1 GPH       0.398300
      2 C2          57.2280    57.6770    55.6380 c6         1 GPH       0.072300
      3 C3          56.8620    57.2580    54.2020 c6         1 GPH       0.110300
      4 C4          58.0970    57.3570    53.3080 c6         1 GPH       0.235300
      5 C5          58.6290    58.8110    53.3070 c6         1 GPH       0.171300
      6 C6          58.1990    59.6100    52.0770 c3         1 GPH       0.131300
      7 C7          58.5580    61.0900    52.1460 c3         1 GPH       0.136600
      8 O2          56.0680    58.1620    56.3000 oh         1 GPH      -0.771000
      9 O3          55.8420    58.0720    53.6700 oh         1 GPH      -0.742000
     10 O4          59.1000    56.5090    53.7900 os         1 GPH      -0.587400
     11 P1          59.1330    54.8410    53.3490 p5         1 GPH       1.265900
     12 O8          58.9550    54.8460    51.8340 o          1 GPH      -0.916833
     13 O9          60.5190    54.4600    53.8500 o          1 GPH      -0.916833
     14 O10         57.9780    54.1920    54.1120 o          1 GPH      -0.916833
     15 O5          58.2110    59.5390    54.4450 os         1 GPH      -0.513000
     16 O6          58.8550    59.0050    50.9750 oh         1 GPH      -0.692000
     17 O7          59.9370    61.3210    52.3130 oh         1 GPH      -0.662000
     18 O1          58.1540    59.6470    56.7050 oh         1 GPH      -0.733000
     19 H1          59.2910    58.3340    55.6990 h2         1 GPH       0.096700
     20 H2          57.6350    56.8130    56.1680 h1         1 GPH       0.085700
     21 H3          56.5380    56.2110    54.2210 h1         1 GPH       0.103700
     22 H4          57.8170    57.0800    52.2840 h1         1 GPH       0.071700
     23 H5          59.7290    58.7470    53.3010 h1         1 GPH       0.068700
     24 H6          57.1090    59.5420    51.9730 h1         1 GPH       0.051700
     25 H71         58.1800    61.5710    51.2300 h1         1 GPH       0.022700
     26 H72         58.0420    61.5650    52.9800 h1         1 GPH       0.022700
     27 HO2         55.7420    57.4910    56.9070 ho         1 GPH       0.497000
     28 HO3         55.2510    58.2920    54.4000 ho         1 GPH       0.485000
     29 HO6         58.4290    59.3050    50.1670 ho         1 GPH       0.473000
     30 HO7         60.3930    60.8430    51.6130 ho         1 GPH       0.442000
     31 HO1         57.2190    59.6380    56.9590 ho         1 GPH       0.507000
@<TRIPOS>BOND
     1     1     2 1   
     2     1    15 1   
     3     1    18 1   
     4     1    19 1   
     5     2     3 1   
     6     2     8 1   
     7     2    20 1   
     8     3     4 1   
     9     3     9 1   
    10     3    21 1   
    11     4     5 1   
    12     4    10 1   
    13     4    22 1   
    14     5     6 1   
    15     5    15 1   
    16     5    23 1   
    17     6     7 1   
    18     6    16 1   
    19     6    24 1   
    20     7    17 1   
    21     7    25 1   
    22     7    26 1   
    23     8    27 1   
    24     9    28 1   
    25    10    11 1   
    26    11    12 1   
    27    11    13 1   
    28    11    14 1   
    29    16    29 1   
    30    17    30 1   
    31    18    31 1   
@<TRIPOS>SUBSTRUCTURE
     1 GPH         1 TEMP              0 ****  ****    0 ROOT
