@<TRIPOS>MOLECULE
GRA
   93    95     1     0     0
SMALL
abcg2


@<TRIPOS>ATOM
      1 O9A        -81.1900    91.8920   -51.8700 o          1 GRA      -0.913500
      2 P3X        -82.2220    91.3890   -50.8700 p5         1 GRA       1.256900
      3 O7A        -82.8470    90.0430   -51.2190 o          1 GRA      -0.913500
      4 O8A        -83.1720    92.4360   -50.3150 o          1 GRA      -0.913500
      5 O3X        -81.2810    91.0320   -49.4420 os         1 GRA      -0.563400
      6 C3X        -80.2930    90.0750   -49.5740 c5         1 GRA       0.199300
      7 C2X        -78.8850    90.6740   -49.6300 c5         1 GRA       0.091300
      8 O2X        -78.7860    91.7570   -48.7450 oh         1 GRA      -0.771000
      9 C4X        -80.1950    89.1930   -48.3300 c5         1 GRA       0.123300
     10 O4X        -78.8570    88.6950   -48.3370 os         1 GRA      -0.459000
     11 C1X        -78.0300    89.5190   -49.1050 c5         1 GRA       0.287300
     12 N9A        -77.4590    88.7400   -50.1980 na         1 GRA      -0.257300
     13 C4A        -76.2530    88.9860   -50.7850 ca         1 GRA       0.099500
     14 N3A        -75.3400    89.8890   -50.4310 nb         1 GRA      -0.186000
     15 C2A        -74.2810    89.8470   -51.2190 ca         1 GRA       0.126900
     16 C8A        -78.0370    87.7340   -50.9140 cc         1 GRA       0.491700
     17 N7A        -77.2960    87.3140   -51.9020 nd         1 GRA      -0.634100
     18 C5A        -76.1660    88.0910   -51.8410 ca         1 GRA      -0.075600
     19 C6A        -74.9860    88.1500   -52.6060 ca         1 GRA       0.420900
     20 N6A        -74.7620    87.3660   -53.6630 nv         1 GRA      -1.087900
     21 N1A        -74.0590    89.0500   -52.2600 nb         1 GRA      -0.338000
     22 C5X        -81.1920    88.0660   -48.3360 c3         1 GRA       0.210600
     23 O5X        -81.1690    87.4010   -47.0890 os         1 GRA      -0.628400
     24 P1A        -82.3070    86.2760   -46.7240 p5         1 GRA       1.483800
     25 O1A        -83.6430    86.7010   -47.2450 o          1 GRA      -0.858000
     26 O2A        -82.0770    85.9370   -45.2890 o          1 GRA      -0.858000
     27 O3A        -81.7590    84.9880   -47.6060 os         1 GRA      -0.739800
     28 P2A        -82.3670    84.3500   -48.9860 p5         1 GRA       1.488800
     29 O4A        -82.3410    85.4030   -50.0740 o          1 GRA      -0.830500
     30 O5A        -83.6130    83.5800   -48.7170 o          1 GRA      -0.830500
     31 O6A        -81.1960    83.2490   -49.2750 os         1 GRA      -0.616400
     32 C13        -79.8450    83.6310   -49.4710 c3         1 GRA       0.246600
     33 C12        -79.3160    83.2920   -50.8690 c3         1 GRA      -0.101000
     34 C15        -79.4330    81.7870   -51.1150 c3         1 GRA      -0.071600
     35 C16        -77.8380    83.6880   -50.8620 c3         1 GRA      -0.071600
     36 C14        -80.1240    84.0850   -51.9430 c3         1 GRA       0.139300
     37 O1         -80.2670    85.4400   -51.6270 oh         1 GRA      -0.741000
     38 C1         -79.4780    83.9580   -53.3190 c          1 GRA       0.600100
     39 O2         -79.6830    82.9790   -54.0300 o          1 GRA      -0.687100
     40 N1         -78.6790    84.9700   -53.6900 ns         1 GRA      -0.484900
     41 C2         -77.8860    84.9310   -54.8950 c3         1 GRA       0.118000
     42 C3         -76.6740    84.0080   -54.7550 c3         1 GRA      -0.196400
     43 C4         -75.7200    84.1260   -55.9220 c          1 GRA       0.601100
     44 O3         -76.1080    84.3010   -57.0680 o          1 GRA      -0.619100
     45 N2         -74.4180    84.0030   -55.5970 ns         1 GRA      -0.522900
     46 C5         -73.3370    84.0660   -56.5480 c3         1 GRA       0.108000
     47 C6         -72.7840    85.4830   -56.6800 c3         1 GRA       0.048600
     48 S1         -71.3690    85.5500   -57.8060 ss         1 GRA      -0.441600
     49 C7         -70.0510    84.9750   -56.7490 c          1 GRA       0.630700
     50 O4         -70.2190    84.7360   -55.5820 o          1 GRA      -0.521100
     51 C8         -68.7500    84.8220   -57.4860 c3         1 GRA      -0.162400
     52 C9         -67.5740    84.4170   -56.6090 c3         1 GRA      -0.036400
     53 C10        -66.2870    84.2840   -57.4110 c3         1 GRA      -0.209400
     54 C11        -66.2540    83.1570   -58.4660 c          1 GRA       0.714000
     55 O5         -67.1120    82.2550   -58.3770 o          1 GRA      -0.746000
     56 O6         -65.3400    83.2300   -59.3130 o          1 GRA      -0.746000
     57 H3X        -80.4430    89.4310   -50.4540 h1         1 GRA       0.065700
     58 H2X        -78.5910    90.9600   -50.6470 h1         1 GRA       0.073700
     59 HO2X       -79.6680    92.1570   -48.7240 ho         1 GRA       0.552000
     60 H4X        -80.3510    89.8100   -47.4350 h1         1 GRA       0.055700
     61 H1X        -77.1830    89.8840   -48.5170 h2         1 GRA       0.068700
     62 H2A        -73.4880    90.5520   -50.9940 h5         1 GRA       0.010100
     63 H8A        -79.0000    87.3200   -50.6630 h5         1 GRA       0.129800
     64 HN6A       -73.8690    87.3900   -54.1270 hn         1 GRA       0.486500
     65 HN6B       -75.3910    86.6180   -53.8910 hn         1 GRA       0.486500
     66 H5X        -82.1770    88.4980   -48.5370 h1         1 GRA       0.070200
     67 H5XA       -80.9690    87.3760   -49.1560 h1         1 GRA       0.070200
     68 H13        -79.6860    84.6950   -49.2670 h1         1 GRA       0.025700
     69 H13A       -79.2400    83.0830   -48.7410 h1         1 GRA       0.025700
     70 H15        -78.9370    81.4920   -52.0380 hc         1 GRA       0.020367
     71 H15A       -78.9600    81.2350   -50.3000 hc         1 GRA       0.020367
     72 H15B       -80.4720    81.4610   -51.1780 hc         1 GRA       0.020367
     73 H16        -77.3300    83.3790   -51.7760 hc         1 GRA       0.020367
     74 H16A       -77.7010    84.7640   -50.7500 hc         1 GRA       0.020367
     75 H16B       -77.3200    83.2020   -50.0330 hc         1 GRA       0.020367
     76 H14        -81.1060    83.6020   -52.0320 h1         1 GRA       0.065700
     77 HO1        -81.0580    85.5190   -51.0300 ho         1 GRA       0.559000
     78 HN1        -78.4710    85.7080   -53.0290 hn         1 GRA       0.374500
     79 H2         -78.5030    84.6220   -55.7380 h1         1 GRA       0.054200
     80 H2B        -77.5600    85.9520   -55.0970 h1         1 GRA       0.054200
     81 H3         -76.1630    84.2180   -53.8130 hc         1 GRA       0.069200
     82 H3A        -77.0120    82.9700   -54.6970 hc         1 GRA       0.069200
     83 HN2        -74.1730    83.9030   -54.6250 hn         1 GRA       0.316500
     84 H5         -72.5520    83.3880   -56.2160 h1         1 GRA       0.059700
     85 H5A        -73.6860    83.7110   -57.5170 h1         1 GRA       0.059700
     86 H6         -73.5350    86.1520   -57.1000 h1         1 GRA       0.083700
     87 H6A        -72.4850    85.8830   -55.7110 h1         1 GRA       0.083700
     88 H8         -68.9050    84.0760   -58.2700 hc         1 GRA       0.082700
     89 H8B        -68.5380    85.7610   -58.0090 hc         1 GRA       0.082700
     90 H9         -67.4350    85.1610   -55.8220 hc         1 GRA       0.031200
     91 H9A        -67.7950    83.4720   -56.1110 hc         1 GRA       0.031200
     92 H10        -66.0500    85.2360   -57.8980 hc         1 GRA       0.015200
     93 H10A       -65.4590    84.1050   -56.7170 hc         1 GRA       0.015200
@<TRIPOS>BOND
     1     1     2 1   
     2     2     3 1   
     3     2     4 1   
     4     2     5 1   
     5     5     6 1   
     6     6     7 1   
     7     6     9 1   
     8     6    57 1   
     9     7     8 1   
    10     7    11 1   
    11     7    58 1   
    12     8    59 1   
    13     9    10 1   
    14     9    22 1   
    15     9    60 1   
    16    10    11 1   
    17    11    12 1   
    18    11    61 1   
    19    12    13 1   
    20    12    16 1   
    21    13    14 ar  
    22    13    18 ar  
    23    14    15 ar  
    24    15    21 ar  
    25    15    62 1   
    26    16    17 2   
    27    16    63 1   
    28    17    18 1   
    29    18    19 ar  
    30    19    20 1   
    31    19    21 ar  
    32    20    64 1   
    33    20    65 1   
    34    22    23 1   
    35    22    66 1   
    36    22    67 1   
    37    23    24 1   
    38    24    25 1   
    39    24    26 1   
    40    24    27 1   
    41    27    28 1   
    42    28    29 1   
    43    28    30 1   
    44    28    31 1   
    45    31    32 1   
    46    32    33 1   
    47    32    68 1   
    48    32    69 1   
    49    33    34 1   
    50    33    35 1   
    51    33    36 1   
    52    34    70 1   
    53    34    71 1   
    54    34    72 1   
    55    35    73 1   
    56    35    74 1   
    57    35    75 1   
    58    36    37 1   
    59    36    38 1   
    60    36    76 1   
    61    37    77 1   
    62    38    39 2   
    63    38    40 1   
    64    40    41 1   
    65    40    78 1   
    66    41    42 1   
    67    41    79 1   
    68    41    80 1   
    69    42    43 1   
    70    42    81 1   
    71    42    82 1   
    72    43    44 2   
    73    43    45 1   
    74    45    46 1   
    75    45    83 1   
    76    46    47 1   
    77    46    84 1   
    78    46    85 1   
    79    47    48 1   
    80    47    86 1   
    81    47    87 1   
    82    48    49 1   
    83    49    50 2   
    84    49    51 1   
    85    51    52 1   
    86    51    88 1   
    87    51    89 1   
    88    52    53 1   
    89    52    90 1   
    90    52    91 1   
    91    53    54 1   
    92    53    92 1   
    93    53    93 1   
    94    54    55 1   
    95    54    56 1   
@<TRIPOS>SUBSTRUCTURE
     1 GRA         1 TEMP              0 ****  ****    0 ROOT
