@<TRIPOS>MOLECULE
GSR
   52    55     1     0     0
SMALL
abcg2


@<TRIPOS>ATOM
      1 P            3.6210     7.8290    15.4380 p5         1 GSR       1.264900
      2 OP1          4.1300     6.4670    15.8920 o          1 GSR      -0.917833
      3 OP2          3.5760     8.9050    16.5160 o          1 GSR      -0.917833
      4 OP3          4.1460     8.3090    14.0890 o          1 GSR      -0.917833
      5 O5           1.9620     7.4520    15.1500 os         1 GSR      -0.602400
      6 C5           1.1430     8.4470    14.6350 c3         1 GSR       0.237600
      7 C4          -0.2860     7.9630    14.4970 c5         1 GSR       0.157300
      8 O4          -0.3830     6.9130    13.5310 os         1 GSR      -0.453000
      9 C3          -0.8930     7.3950    15.7810 c5         1 GSR       0.137300
     10 O3          -2.2770     7.6810    15.7570 oh         1 GSR      -0.746000
     11 C2          -0.6190     5.9060    15.6370 c5         1 GSR      -0.152400
     12 C1          -0.7690     5.7080    14.1350 c5         1 GSR       0.328300
     13 N9           0.0180     4.6200    13.6010 na         1 GSR      -0.166500
     14 C8           1.3800     4.4440    13.6670 cc         1 GSR       0.485400
     15 N7           1.7760     3.3590    13.0730 nd         1 GSR      -0.632000
     16 C7           0.6280     2.7850    12.5890 cd         1 GSR       0.104500
     17 C6           0.4250     1.5760    11.8590 c          1 GSR       0.520500
     18 O6           1.2500     0.7630    11.4800 o          1 GSR      -0.555000
     19 N1          -0.9380     1.3850    11.5880 ns         1 GSR      -0.461400
     20 C10         -1.9560     2.2220    11.9520 cd         1 GSR       0.693800
     21 N2          -3.2000     1.8730    11.5870 nu         1 GSR      -0.925400
     22 N3          -1.7600     3.3300    12.6170 nc         1 GSR      -0.666100
     23 C9          -0.4710     3.5590    12.9050 cc         1 GSR       0.089400
     24 CA          -4.3530     2.6520    11.9820 c3         1 GSR       0.264800
     25 CB          -5.5450     2.2030    11.1250 c3         1 GSR       0.151600
     26 OB          -6.7040     2.9330    11.4120 oh         1 GSR      -0.651000
     27 CJ          -4.6680     2.5410    13.4570 ca         1 GSR      -0.102300
     28 CO          -4.7040     1.3010    14.0890 ca         1 GSR      -0.090000
     29 C11         -4.9770     3.6800    14.1920 ca         1 GSR      -0.090000
     30 CM          -5.0370     1.2050    15.4330 ca         1 GSR      -0.114000
     31 C12         -5.3100     3.5890    15.5370 ca         1 GSR      -0.114000
     32 CP          -5.3400     2.3490    16.1620 ca         1 GSR      -0.110000
     33 H5           1.4840     8.7950    13.6480 h1         1 GSR       0.012200
     34 H5'          1.1170     9.3410    15.2780 h1         1 GSR       0.012200
     35 H4          -0.8890     8.8090    14.1470 h1         1 GSR       0.039700
     36 H3          -0.4140     7.8150    16.6730 h1         1 GSR       0.085700
     37 HO3         -2.6930     7.2180    16.4910 ho         1 GSR       0.477000
     38 H2           0.3940     5.6810    15.9670 hc         1 GSR       0.079200
     39 H2'         -1.3090     5.2790    16.2030 hc         1 GSR       0.079200
     40 H1          -1.8050     5.4680    13.8790 h2         1 GSR       0.056700
     41 H8           2.0180     5.1560    14.1700 h5         1 GSR       0.151100
     42 H7          -1.1620     0.5470    11.0650 hn         1 GSR       0.295500
     43 H6          -3.3520     0.9650    11.1750 hn         1 GSR       0.479000
     44 HA          -4.1520     3.7010    11.7510 h1         1 GSR       0.102700
     45 HB1         -5.6950     1.1220    11.2530 h1         1 GSR       0.039200
     46 HB2         -5.3060     2.3760    10.0730 h1         1 GSR       0.039200
     47 HB          -7.0290     2.6700    12.2800 ho         1 GSR       0.447000
     48 HO          -4.4640     0.4010    13.5340 ha         1 GSR       0.115000
     49 H9          -4.9430     4.6510    13.7110 ha         1 GSR       0.115000
     50 HM          -5.0590     0.2350    15.9140 ha         1 GSR       0.109500
     51 H10         -5.5400     4.4860    16.0980 ha         1 GSR       0.109500
     52 HP          -5.5960     2.2730    17.2100 ha         1 GSR       0.106000
@<TRIPOS>BOND
     1     1     2 1   
     2     1     3 1   
     3     1     4 1   
     4     1     5 1   
     5     5     6 1   
     6     6     7 1   
     7     6    33 1   
     8     6    34 1   
     9     7     8 1   
    10     7     9 1   
    11     7    35 1   
    12     8    12 1   
    13     9    10 1   
    14     9    11 1   
    15     9    36 1   
    16    10    37 1   
    17    11    12 1   
    18    11    38 1   
    19    11    39 1   
    20    12    13 1   
    21    12    40 1   
    22    13    14 1   
    23    13    23 1   
    24    14    15 2   
    25    14    41 1   
    26    15    16 1   
    27    16    17 1   
    28    16    23 2   
    29    17    18 2   
    30    17    19 1   
    31    19    20 1   
    32    19    42 1   
    33    20    21 1   
    34    20    22 2   
    35    21    24 1   
    36    21    43 1   
    37    22    23 1   
    38    24    25 1   
    39    24    27 1   
    40    24    44 1   
    41    25    26 1   
    42    25    45 1   
    43    25    46 1   
    44    26    47 1   
    45    27    28 ar  
    46    27    29 ar  
    47    28    30 ar  
    48    28    48 1   
    49    29    31 ar  
    50    29    49 1   
    51    30    32 ar  
    52    30    50 1   
    53    31    32 ar  
    54    31    51 1   
    55    32    52 1   
@<TRIPOS>SUBSTRUCTURE
     1 GSR         1 TEMP              0 ****  ****    0 ROOT
