@<TRIPOS>MOLECULE
Z98
   38    38     1     0     0
SMALL
abcg2


@<TRIPOS>ATOM
      1 C            7.9240    44.5930    -8.6370 c          1 Z98       0.721000
      2 N            9.3900    43.2640    -7.2030 n8         1 Z98      -0.986200
      3 OXT          7.2080    44.8410    -7.6450 o          1 Z98      -0.728000
      4 N1           7.7680    45.8400   -14.5930 nb         1 Z98      -0.683000
      5 C2           8.8730    46.5420   -14.3880 ca         1 Z98       0.265300
      6 C3           9.9770    45.9670   -13.7490 ca         1 Z98       0.075100
      7 O3          11.0670    46.7430   -13.5800 oh         1 Z98      -0.573100
      8 C4           9.9080    44.6440   -13.3250 ca         1 Z98      -0.264900
      9 C5           8.7350    43.9210   -13.5420 ca         1 Z98       0.008700
     10 C6           7.6970    44.5780   -14.1830 ca         1 Z98       0.366900
     11 CA           9.3950    44.2190    -8.3080 c3         1 Z98       0.024500
     12 CB          10.1850    43.6270    -9.4700 c3         1 Z98      -0.040400
     13 ND          11.4550    44.0110   -11.4980 n2         1 Z98      -0.632900
     14 CG          10.6260    44.6570   -10.5040 c3         1 Z98       0.102800
     15 C4A         11.1050    43.9970   -12.7110 ce         1 Z98       0.489800
     16 C5A          8.5990    42.5110   -13.0210 c3         1 Z98       0.270900
     17 OP1          8.8800    39.8040   -14.4230 o          1 Z98      -0.926833
     18 OP2          8.3870    41.7790   -15.9800 o          1 Z98      -0.926833
     19 OP3          6.4620    40.2550   -15.1860 o          1 Z98      -0.926833
     20 OP4          7.5280    41.8080   -13.5470 os         1 Z98      -0.568400
     21 O            7.5750    44.6420    -9.8320 o          1 Z98      -0.728000
     22 HN          10.3100    43.2270    -6.7820 hn         1 Z98       0.364500
     23 HNA          8.7610    43.6130    -6.4920 hn         1 Z98       0.364500
     24 HO3         11.7600    46.2800   -13.0950 ho         1 Z98       0.448000
     25 H6           6.7680    44.0590   -14.3800 h4         1 Z98       0.059100
     26 HA           9.8890    45.1680    -8.0250 h1         1 Z98      -0.027300
     27 HB          11.0850    43.1450    -9.0740 hc         1 Z98       0.040700
     28 HBA          9.6000    42.8410    -9.9550 hc         1 Z98       0.040700
     29 HG           9.7540    45.1650   -10.9210 h1         1 Z98       0.044700
     30 HGA         11.2440    45.4110   -10.0050 h1         1 Z98       0.044700
     31 H2A          7.9700    48.2240   -15.3320 hc         1 Z98       0.016367
     32 H2AA         9.0820    48.6590   -14.0320 hc         1 Z98       0.016367
     33 H2AB         9.7150    48.1320   -15.5810 hc         1 Z98       0.016367
     34 H4A         11.7530    43.4600   -13.4070 h4         1 Z98       0.011800
     35 H5A          9.5530    41.9830   -13.1620 h1         1 Z98       0.026700
     36 H5AA         8.4700    42.5900   -11.9310 h1         1 Z98       0.026700
     37 C2A          8.9140    47.9650   -14.8570 c3         1 Z98      -0.102400
     38 P            7.8530    40.8150   -14.9260 p5         1 Z98       1.268900
@<TRIPOS>BOND
     1     1     3 1   
     2     1    11 1   
     3     1    21 1   
     4     2    11 1   
     5     2    22 1   
     6     2    23 1   
     7     4     5 ar  
     8     4    10 ar  
     9     5     6 ar  
    10     5    37 1   
    11     6     7 1   
    12     6     8 ar  
    13     7    24 1   
    14     8     9 ar  
    15     8    15 1   
    16     9    10 ar  
    17     9    16 1   
    18    10    25 1   
    19    11    12 1   
    20    11    26 1   
    21    12    14 1   
    22    12    27 1   
    23    12    28 1   
    24    13    14 1   
    25    13    15 2   
    26    14    29 1   
    27    14    30 1   
    28    15    34 1   
    29    16    20 1   
    30    16    35 1   
    31    16    36 1   
    32    17    38 1   
    33    18    38 1   
    34    19    38 1   
    35    20    38 1   
    36    31    37 1   
    37    32    37 1   
    38    33    37 1   
@<TRIPOS>SUBSTRUCTURE
     1 Z98         1 TEMP              0 ****  ****    0 ROOT
