@<TRIPOS>MOLECULE
ZAN
   44    46     1     0     0
SMALL
abcg2


@<TRIPOS>ATOM
      1 PA          15.5630     6.7240   -13.6950 p5         1 ZAN       1.411700
      2 PB          18.0000     6.1880   -15.5470 p5         1 ZAN       1.501700
      3 PG          19.3200     8.7410   -14.6110 p5         1 ZAN       1.356900
      4 O1A         16.0840     5.7700   -12.6600 o          1 ZAN      -0.861000
      5 O1B         18.1200     4.8320   -14.9100 o          1 ZAN      -0.891500
      6 O1G         18.1030     9.3970   -15.2800 o          1 ZAN      -0.946500
      7 O2A         14.9590     8.0420   -13.2980 o          1 ZAN      -0.861000
      8 O2B         17.8720     6.2090   -17.0780 o          1 ZAN      -0.891500
      9 O2G         19.2190     8.5980   -13.1030 o          1 ZAN      -0.946500
     10 N3A         16.6760     7.0480   -14.9230 n7         1 ZAN      -1.084600
     11 O3B         19.2760     7.0980   -15.1850 os         1 ZAN      -0.736800
     12 O3G         20.6580     9.2200   -15.1430 o          1 ZAN      -0.946500
     13 O5          14.3170     5.9570   -14.5010 os         1 ZAN      -0.624400
     14 C5          14.4780     4.6740   -15.0510 c3         1 ZAN       0.237600
     15 C4          13.9960     4.6240   -16.4850 c5         1 ZAN       0.107300
     16 O4          12.6130     4.9760   -16.5650 os         1 ZAN      -0.460000
     17 C3          14.7140     5.5630   -17.4590 c5         1 ZAN       0.157300
     18 O3          15.8670     5.0010   -17.9900 oh         1 ZAN      -0.868000
     19 C2          13.6430     5.7630   -18.5350 c5         1 ZAN       0.096300
     20 O2          13.6430     4.6830   -19.4300 oh         1 ZAN      -0.768000
     21 C1          12.3510     5.7150   -17.7180 c5         1 ZAN       0.307300
     22 N9          11.8900     7.0460   -17.3420 na         1 ZAN      -0.279300
     23 C8          12.2600     7.8040   -16.2650 cc         1 ZAN       0.502700
     24 N7          11.7100     8.9860   -16.2540 nd         1 ZAN      -0.585100
     25 C7          10.9410     9.0140   -17.3870 ca         1 ZAN      -0.069600
     26 C6          10.1040     9.9930   -17.9540 ca         1 ZAN       0.419900
     27 N6           9.9250    11.1960   -17.4050 nv         1 ZAN      -1.089900
     28 N1           9.4750     9.6960   -19.0970 nb         1 ZAN      -0.349000
     29 C10          9.6660     8.5010   -19.6500 ca         1 ZAN       0.116900
     30 N3          10.4270     7.5090   -19.2210 nb         1 ZAN      -0.199000
     31 C9          11.0420     7.8180   -18.0800 ca         1 ZAN       0.079500
     32 H5          16.8260     8.0530   -15.0850 hn         1 ZAN       0.533000
     33 H6          13.9190     3.9420   -14.4550 h1         1 ZAN       0.032200
     34 H7          15.5210     4.3400   -15.0550 h1         1 ZAN       0.032200
     35 H8          14.1260     3.5900   -16.8340 h1         1 ZAN       0.022700
     36 H9          14.9150     6.5200   -16.9630 h1         1 ZAN       0.107700
     37 H10         16.6860     5.4890   -17.6290 ho         1 ZAN       0.633000
     38 H11         13.7440     6.7200   -19.0640 h1         1 ZAN       0.053700
     39 H12         14.5660     4.4080   -19.5170 ho         1 ZAN       0.539000
     40 H13         11.5370     5.2660   -18.2950 h2         1 ZAN       0.062700
     41 H14         12.9310     7.4250   -15.5090 h5         1 ZAN       0.165800
     42 H15          9.2830    11.8510   -17.8170 hn         1 ZAN       0.489000
     43 H16         10.3450    11.4320   -16.5230 hn         1 ZAN       0.489000
     44 H17          9.1260     8.3240   -20.5750 h5         1 ZAN       0.004100
@<TRIPOS>BOND
     1     1     4 1   
     2     1     7 1   
     3     1    10 1   
     4     1    13 1   
     5     2     5 1   
     6     2     8 1   
     7     2    10 1   
     8     2    11 1   
     9     3     6 1   
    10     3     9 1   
    11     3    11 1   
    12     3    12 1   
    13    10    32 1   
    14    13    14 1   
    15    14    15 1   
    16    14    33 1   
    17    14    34 1   
    18    15    16 1   
    19    15    17 1   
    20    15    35 1   
    21    16    21 1   
    22    17    18 1   
    23    17    19 1   
    24    17    36 1   
    25    18    37 1   
    26    19    20 1   
    27    19    21 1   
    28    19    38 1   
    29    20    39 1   
    30    21    22 1   
    31    21    40 1   
    32    22    23 1   
    33    22    31 1   
    34    23    24 2   
    35    23    41 1   
    36    24    25 1   
    37    25    26 ar  
    38    25    31 ar  
    39    26    27 1   
    40    26    28 ar  
    41    27    42 1   
    42    27    43 1   
    43    28    29 ar  
    44    29    30 ar  
    45    29    44 1   
    46    30    31 ar  
@<TRIPOS>SUBSTRUCTURE
     1 ZAN         1 TEMP              0 ****  ****    0 ROOT
