@<TRIPOS>MOLECULE
ZBC
   27    27     1     0     0
SMALL
abcg2


@<TRIPOS>ATOM
      1 P           36.2290    45.5340     8.8630 p5         1 ZBC       1.269900
      2 C5          40.1980    38.4740     8.9920 cc         1 ZBC      -0.401900
      3 C4          39.1810    37.5780     9.4540 cc         1 ZBC       0.805500
      4 N4          39.4010    36.2700     9.5700 nv         1 ZBC      -1.053200
      5 N3          37.9880    38.0340     9.7780 nd         1 ZBC      -0.801100
      6 C2          37.6640    39.3400     9.6930 c          1 ZBC       0.700400
      7 O2          36.5550    39.7700     9.9750 o          1 ZBC      -0.504000
      8 C6          39.8750    39.7860     8.9110 cd         1 ZBC       0.090600
      9 N1          38.6570    40.2340     9.2630 n          1 ZBC      -0.265000
     10 C1G         38.3420    41.6500     9.1160 c3         1 ZBC       0.091000
     11 C2G         37.6910    41.9590     7.7770 c3         1 ZBC       0.121300
     12 O2G         38.5870    41.5310     6.7740 oh         1 ZBC      -0.715000
     13 C3G         37.4040    43.4540     7.6560 c3         1 ZBC       0.233600
     14 O3G         36.5700    43.8520     8.6940 os         1 ZBC      -0.580400
     15 O1P         37.6020    46.1950     8.9460 o          1 ZBC      -0.920500
     16 O2P         35.4340    45.8830     7.6090 o          1 ZBC      -0.920500
     17 OXT         35.4340    45.5270    10.1620 o          1 ZBC      -0.920500
     18 H6          40.5850    40.5320     8.5820 h4         1 ZBC       0.223000
     19 H41N        38.6600    35.6800     9.9080 hn         1 ZBC       0.492000
     20 H42N        40.2830    35.8380     9.3590 hn         1 ZBC       0.492000
     21 H1G1        37.6900    41.9530     9.9290 h1         1 ZBC       0.098200
     22 H1G2        39.2750    42.2090     9.2130 h1         1 ZBC       0.098200
     23 H2G         36.7440    41.4070     7.7150 h1         1 ZBC       0.046700
     24 HA          38.1330    41.5570     5.9260 ho         1 ZBC       0.436000
     25 H3G1        38.3660    43.9880     7.6580 h1         1 ZBC       0.000700
     26 H3G2        36.9530    43.6370     6.6660 h1         1 ZBC       0.000700
     27 BR5         41.9190    37.8940     8.5120 br         1 ZBC      -0.116700
@<TRIPOS>BOND
     1     1    14 1   
     2     1    15 1   
     3     1    16 1   
     4     1    17 1   
     5     2     3 1   
     6     2     8 2   
     7     2    27 1   
     8     3     4 1   
     9     3     5 2   
    10     4    19 1   
    11     4    20 1   
    12     5     6 1   
    13     6     7 2   
    14     6     9 1   
    15     8     9 1   
    16     8    18 1   
    17     9    10 1   
    18    10    11 1   
    19    10    21 1   
    20    10    22 1   
    21    11    12 1   
    22    11    13 1   
    23    11    23 1   
    24    12    24 1   
    25    13    14 1   
    26    13    25 1   
    27    13    26 1   
@<TRIPOS>SUBSTRUCTURE
     1 ZBC         1 TEMP              0 ****  ****    0 ROOT
