@<TRIPOS>MOLECULE
ZKK
   93    95     1     0     0
SMALL
abcg2


@<TRIPOS>ATOM
      1 C01         51.6030    61.6550    70.3470 c3         1 ZKK      -0.070100
      2 C02         50.7690    61.0280    71.4570 c3         1 ZKK      -0.125700
      3 C03         51.4060    61.2250    72.8370 c3         1 ZKK      -0.207400
      4 C04         52.7040    60.4140    73.0670 c          1 ZKK       0.723000
      5 C07         49.3780    61.6130    71.4810 c          1 ZKK       0.625700
      6 C2P         46.6790    61.4310    72.1930 c3         1 ZKK       0.040600
      7 C3P         46.6510    62.1290    73.5480 c3         1 ZKK       0.111000
      8 C5P         44.2790    62.3540    74.1280 c          1 ZKK       0.602100
      9 C6P         43.1230    63.3240    74.2480 c3         1 ZKK      -0.187400
     10 C7P         41.8110    62.6970    73.7870 c3         1 ZKK       0.118000
     11 C9P         40.3450    64.5280    73.0750 c          1 ZKK       0.602100
     12 CAP         39.1010    65.3400    73.4190 c3         1 ZKK       0.122300
     13 CBP         37.8200    64.7640    72.7530 c3         1 ZKK      -0.088000
     14 CDP         38.0110    64.6370    71.2410 c3         1 ZKK      -0.079100
     15 CEP         37.4290    63.4040    73.3310 c3         1 ZKK      -0.079100
     16 CCP         36.6760    65.7670    72.9400 c3         1 ZKK       0.217600
     17 C5B         35.1590    71.2920    74.0350 c3         1 ZKK       0.223600
     18 C4B         36.1380    72.3830    73.6580 c5         1 ZKK       0.143300
     19 C1B         37.9000    72.0080    72.1830 c5         1 ZKK       0.279300
     20 C8A         38.0440    69.5420    71.6950 cc         1 ZKK       0.479700
     21 C5A         40.1030    69.3010    71.2900 ca         1 ZKK      -0.078600
     22 C6A         41.4180    68.8890    71.0110 ca         1 ZKK       0.405900
     23 C2A         42.0400    71.0970    71.1930 ca         1 ZKK       0.114900
     24 C4A         39.9140    70.6560    71.5190 ca         1 ZKK       0.104500
     25 C2B         36.6820    72.3740    71.3270 c5         1 ZKK       0.157300
     26 C3B         35.8190    73.1320    72.3570 c5         1 ZKK       0.192300
     27 N4P         45.4430    62.8970    73.7260 ns         1 ZKK      -0.510900
     28 N8P         40.6800    63.5770    73.9540 ns         1 ZKK      -0.502900
     29 N9A         38.5780    70.7990    71.7690 na         1 ZKK      -0.233300
     30 N7A         38.9170    68.6230    71.4020 nd         1 ZKK      -0.629100
     31 N6A         41.7510    67.6140    70.7740 nv         1 ZKK      -1.074900
     32 N1A         42.3690    69.8290    70.9630 nb         1 ZKK      -0.350000
     33 N3A         40.8520    71.5990    71.4810 nb         1 ZKK      -0.172000
     34 O05         53.4450    60.8390    73.9740 o          1 ZKK      -0.741500
     35 O06         52.8670    59.3860    72.3830 o          1 ZKK      -0.741500
     36 O08         49.1040    62.7610    71.2470 o          1 ZKK      -0.531100
     37 O5P         44.1540    61.1630    74.3740 o          1 ZKK      -0.631100
     38 O9P         40.9700    64.7300    72.0390 o          1 ZKK      -0.658100
     39 OAP         39.0030    65.4180    74.8200 oh         1 ZKK      -0.726000
     40 O6A         36.4260    66.0070    74.3140 os         1 ZKK      -0.632400
     41 O4A         33.8660    66.0210    74.1180 o          1 ZKK      -0.856500
     42 O5A         35.1150    66.8190    76.2780 o          1 ZKK      -0.856500
     43 O3A         35.2220    68.2020    74.1420 os         1 ZKK      -0.727800
     44 O1A         34.2140    68.3610    71.7720 o          1 ZKK      -0.857500
     45 O2A         32.9000    69.2530    73.8610 o          1 ZKK      -0.857500
     46 O5B         35.0360    70.3740    72.9740 os         1 ZKK      -0.607400
     47 O4B         37.4520    71.8440    73.5000 os         1 ZKK      -0.479000
     48 O2B         37.0560    73.0600    70.1860 oh         1 ZKK      -0.855000
     49 O3B         36.2180    74.4690    72.4790 os         1 ZKK      -0.598400
     50 O9A         33.9620    75.6450    72.0500 o          1 ZKK      -0.900500
     51 O8A         35.4860    75.0040    70.1030 o          1 ZKK      -0.900500
     52 O7A         36.2160    76.8640    71.7360 o          1 ZKK      -0.900500
     53 P2A         35.0070    66.7100    74.7940 p5         1 ZKK       1.481800
     54 P1A         34.1760    68.9830    73.1300 p5         1 ZKK       1.477800
     55 P3B         35.3860    75.6160    71.5260 p5         1 ZKK       1.299900
     56 S1P         48.1560    60.4120    71.9630 ss         1 ZKK      -0.424600
     57 H1          51.1440    61.5180    69.3670 hc         1 ZKK       0.031367
     58 H2          51.7420    62.7240    70.5090 hc         1 ZKK       0.031367
     59 H3          52.5860    61.1880    70.3210 hc         1 ZKK       0.031367
     60 H9          50.6870    59.9520    71.2810 hc         1 ZKK       0.089700
     61 H4          50.7000    60.9230    73.6190 hc         1 ZKK       0.034700
     62 H11         51.5990    62.2890    73.0020 hc         1 ZKK       0.034700
     63 H51A        45.8400    60.7390    72.1050 h1         1 ZKK       0.081200
     64 H122        46.6090    62.1460    71.3740 h1         1 ZKK       0.081200
     65 HN8         47.4980    62.8080    73.6410 h1         1 ZKK       0.060200
     66 H61A        46.7360    61.3930    74.3470 h1         1 ZKK       0.060200
     67 H61         43.0400    63.6100    75.3020 hc         1 ZKK       0.070700
     68 H62         43.3190    64.2420    73.6910 hc         1 ZKK       0.070700
     69 H71         41.8830    62.4070    72.7380 h1         1 ZKK       0.050200
     70 H72         41.6070    61.7920    74.3560 h1         1 ZKK       0.050200
     71 H10         39.2670    66.3340    72.9780 h1         1 ZKK       0.096700
     72 H131        38.7290    63.8610    70.9830 hc         1 ZKK       0.027867
     73 H132        37.0630    64.3690    70.7720 hc         1 ZKK       0.027867
     74 H133        38.3480    65.5750    70.7940 hc         1 ZKK       0.027867
     75 H141        37.2670    63.4310    74.4080 hc         1 ZKK       0.027867
     76 H142        36.5010    63.0630    72.8680 hc         1 ZKK       0.027867
     77 H143        38.1900    62.6500    73.1270 hc         1 ZKK       0.027867
     78 H5          36.9330    66.7050    72.4340 h1         1 ZKK       0.056200
     79 H121        35.7810    65.3640    72.4540 h1         1 ZKK       0.056200
     80 H6          34.1980    71.7640    74.2670 h1         1 ZKK       0.015700
     81 H52A        35.5070    70.7990    74.9510 h1         1 ZKK       0.015700
     82 H4B         36.1530    73.0990    74.4880 h1         1 ZKK       0.047700
     83 H1B         38.6460    72.8070    72.1090 h2         1 ZKK       0.089700
     84 H8A         36.9930    69.3620    71.8600 h5         1 ZKK       0.127800
     85 H2A         42.8580    71.8080    71.1340 h5         1 ZKK       0.005100
     86 H2B         36.1450    71.4470    71.0740 h1         1 ZKK       0.046700
     87 H3B         34.7520    73.0480    72.1190 h1         1 ZKK       0.068700
     88 HN4         45.4600    63.8680    73.4590 hn         1 ZKK       0.322500
     89 H7          40.1720    63.5440    74.8240 hn         1 ZKK       0.339500
     90 H8          42.7290    67.3820    70.7210 hn         1 ZKK       0.486000
     91 H62A        41.1270    66.8610    71.0240 hn         1 ZKK       0.486000
     92 HO1         38.0990    65.7050    75.0270 ho         1 ZKK       0.530000
     93 HO2A        36.4370    73.8700    70.0740 ho         1 ZKK       0.612000
@<TRIPOS>BOND
     1     1     2 1   
     2     1    57 1   
     3     1    58 1   
     4     1    59 1   
     5     2     3 1   
     6     2     5 1   
     7     2    60 1   
     8     3     4 1   
     9     3    61 1   
    10     3    62 1   
    11     4    34 1   
    12     4    35 1   
    13     5    36 2   
    14     5    56 1   
    15     6     7 1   
    16     6    56 1   
    17     6    63 1   
    18     6    64 1   
    19     7    27 1   
    20     7    65 1   
    21     7    66 1   
    22     8     9 1   
    23     8    27 1   
    24     8    37 2   
    25     9    10 1   
    26     9    67 1   
    27     9    68 1   
    28    10    28 1   
    29    10    69 1   
    30    10    70 1   
    31    11    12 1   
    32    11    28 1   
    33    11    38 2   
    34    12    13 1   
    35    12    39 1   
    36    12    71 1   
    37    13    14 1   
    38    13    15 1   
    39    13    16 1   
    40    14    72 1   
    41    14    73 1   
    42    14    74 1   
    43    15    75 1   
    44    15    76 1   
    45    15    77 1   
    46    16    40 1   
    47    16    78 1   
    48    16    79 1   
    49    17    18 1   
    50    17    46 1   
    51    17    80 1   
    52    17    81 1   
    53    18    26 1   
    54    18    47 1   
    55    18    82 1   
    56    19    25 1   
    57    19    29 1   
    58    19    47 1   
    59    19    83 1   
    60    20    29 1   
    61    20    30 2   
    62    20    84 1   
    63    21    22 ar  
    64    21    24 ar  
    65    21    30 1   
    66    22    31 1   
    67    22    32 ar  
    68    23    32 ar  
    69    23    33 ar  
    70    23    85 1   
    71    24    29 1   
    72    24    33 ar  
    73    25    26 1   
    74    25    48 1   
    75    25    86 1   
    76    26    49 1   
    77    26    87 1   
    78    27    88 1   
    79    28    89 1   
    80    31    90 1   
    81    31    91 1   
    82    39    92 1   
    83    40    53 1   
    84    41    53 1   
    85    42    53 1   
    86    43    53 1   
    87    43    54 1   
    88    44    54 1   
    89    45    54 1   
    90    46    54 1   
    91    48    93 1   
    92    49    55 1   
    93    50    55 1   
    94    51    55 1   
    95    52    55 1   
@<TRIPOS>SUBSTRUCTURE
     1 ZKK         1 TEMP              0 ****  ****    0 ROOT
