@<TRIPOS>MOLECULE
ZMO
   94    93     1     0     0
SMALL
abcg2


@<TRIPOS>ATOM
      1 O23          9.6130    -5.4260    -1.6270 o          1 ZMO      -0.926500
      2 P24          9.7070    -4.5990    -0.3510 p5         1 ZMO       1.271900
      3 O26         10.9630    -4.8380     0.4810 o          1 ZMO      -0.926500
      4 O27          9.8980    -3.0340    -0.9990 os         1 ZMO      -0.588400
      5 C28          9.9310    -1.9710    -0.0950 c3         1 ZMO       0.245600
      6 C29         10.0860    -0.6430    -0.8480 c3         1 ZMO      -0.076000
      7 C31         11.3610    -0.6540    -1.6960 c3         1 ZMO      -0.063600
      8 C30          8.8870    -0.4290    -1.7730 c3         1 ZMO      -0.063600
      9 C32         10.2000     0.5430     0.1490 c3         1 ZMO       0.110300
     10 O33         11.3340     0.4570     0.9730 oh         1 ZMO      -0.669000
     11 C34          8.9690     0.7130     1.0410 c          1 ZMO       0.574100
     12 O35          8.9060     0.1400     2.1220 o          1 ZMO      -0.590100
     13 N36          8.0090     1.5180     0.5710 ns         1 ZMO      -0.514900
     14 C37          6.7570     1.7730     1.2480 c3         1 ZMO       0.114000
     15 C38          5.6070     1.8120     0.2480 c3         1 ZMO      -0.179400
     16 C39          4.2910     2.0470     0.9580 c          1 ZMO       0.599100
     17 O40          3.9530     1.3720     1.9200 o          1 ZMO      -0.583100
     18 N41          3.5410     3.0470     0.4650 ns         1 ZMO      -0.519900
     19 C42          2.2560     3.4170     1.0050 c3         1 ZMO       0.115000
     20 C43          1.1210     2.6410     0.3430 c3         1 ZMO       0.051600
     21 S1          -0.4390     3.1590     1.1110 ss         1 ZMO      -0.405600
     22 C1          -1.6460     2.4230     0.0430 c          1 ZMO       0.615700
     23 O1          -1.3550     1.8240    -0.9600 o          1 ZMO      -0.503100
     24 C2          -3.0490     2.6070     0.5590 c3         1 ZMO      -0.168400
     25 C3          -4.1230     2.5740    -0.5190 c3         1 ZMO      -0.066400
     26 C4          -5.5150     2.7190     0.0850 c3         1 ZMO      -0.076400
     27 C5          -6.6260     2.7050    -0.9560 c3         1 ZMO      -0.074400
     28 C6          -8.0140     2.8310    -0.3400 c3         1 ZMO      -0.075400
     29 C7          -9.1340     2.8070    -1.3730 c3         1 ZMO      -0.072400
     30 C8         -10.5250     2.9100    -0.7430 c3         1 ZMO      -0.044200
     31 C9         -11.6120     2.9090    -1.7750 c2         1 ZMO      -0.215200
     32 C10        -12.3830     1.8800    -2.1240 c2         1 ZMO      -0.216200
     33 C11        -12.3710     0.4980    -1.5510 c3         1 ZMO      -0.044200
     34 C12        -13.7490     0.0470    -1.0660 c3         1 ZMO      -0.071400
     35 C13        -13.7490    -1.3880    -0.5530 c3         1 ZMO      -0.076400
     36 C14        -15.1210    -1.8670    -0.0960 c3         1 ZMO      -0.073400
     37 C15        -15.1130    -3.3040     0.4130 c3         1 ZMO      -0.075400
     38 C16        -16.4830    -3.7940     0.8630 c3         1 ZMO      -0.074400
     39 H28          9.0110    -1.9480     0.5030 h1         1 ZMO       0.010700
     40 H28A        10.7640    -2.0890     0.6150 h1         1 ZMO       0.010700
     41 H31         11.3210    -1.4530    -2.4350 hc         1 ZMO       0.023033
     42 H31A        11.4740     0.2900    -2.2350 hc         1 ZMO       0.023033
     43 H31B        12.2540    -0.8000    -1.0890 hc         1 ZMO       0.023033
     44 H30          7.9370    -0.4760    -1.2390 hc         1 ZMO       0.023033
     45 H30A         8.9390     0.5400    -2.2780 hc         1 ZMO       0.023033
     46 H30B         8.8640    -1.1960    -2.5460 hc         1 ZMO       0.023033
     47 H32         10.3240     1.4500    -0.4560 h1         1 ZMO       0.029700
     48 HO33        11.1070    -0.1050     1.7240 ho         1 ZMO       0.476000
     49 HN36         8.1840     2.0170    -0.2870 hn         1 ZMO       0.302500
     50 H37          6.5940     0.9830     1.9770 h1         1 ZMO       0.060200
     51 H37A         6.8090     2.7190     1.7940 h1         1 ZMO       0.060200
     52 H38          5.7890     2.5780    -0.5090 hc         1 ZMO       0.067700
     53 H38A         5.5450     0.8530    -0.2730 hc         1 ZMO       0.067700
     54 HN41         3.8710     3.5510    -0.3420 hn         1 ZMO       0.310500
     55 H42          2.2600     3.2460     2.0820 h1         1 ZMO       0.059700
     56 H42A         2.1200     4.4870     0.8460 h1         1 ZMO       0.059700
     57 H43          1.0830     2.8530    -0.7250 h1         1 ZMO       0.085200
     58 H43A         1.2540     1.5690     0.4850 h1         1 ZMO       0.085200
     59 H2          -3.2160     1.8010     1.2830 hc         1 ZMO       0.071200
     60 H2A         -3.1090     3.5350     1.1350 hc         1 ZMO       0.071200
     61 H3          -3.9500     3.3800    -1.2380 hc         1 ZMO       0.052700
     62 H3A         -4.0630     1.6370    -1.0770 hc         1 ZMO       0.052700
     63 H4          -5.6810     1.9100     0.8040 hc         1 ZMO       0.036700
     64 H4A         -5.5680     3.6500     0.6600 hc         1 ZMO       0.036700
     65 H5          -6.4690     3.5220    -1.6690 hc         1 ZMO       0.040200
     66 H5A         -6.5690     1.7790    -1.5380 hc         1 ZMO       0.040200
     67 H6          -8.1660     2.0160     0.3760 hc         1 ZMO       0.036700
     68 H6A         -8.0730     3.7580     0.2400 hc         1 ZMO       0.036700
     69 H7          -8.9940     3.6260    -2.0860 hc         1 ZMO       0.040700
     70 H7A         -9.0760     1.8820    -1.9560 hc         1 ZMO       0.040700
     71 H8         -10.6580     2.0900    -0.0330 hc         1 ZMO       0.042700
     72 H8A        -10.5820     3.8340    -0.1590 hc         1 ZMO       0.042700
     73 H9         -11.7440     3.8440    -2.3140 ha         1 ZMO       0.164000
     74 H10        -13.1090     2.0400    -2.9180 ha         1 ZMO       0.162000
     75 H11        -12.0320    -0.2000    -2.3260 hc         1 ZMO       0.046700
     76 H11A       -11.6510     0.4130    -0.7330 hc         1 ZMO       0.046700
     77 H12        -14.0960     0.7200    -0.2750 hc         1 ZMO       0.037700
     78 H12A       -14.4700     0.1420    -1.8850 hc         1 ZMO       0.037700
     79 H13        -13.3770    -2.0520    -1.3420 hc         1 ZMO       0.039200
     80 H13A       -13.0390    -1.4770     0.2760 hc         1 ZMO       0.039200
     81 H14        -15.4950    -1.2050     0.6930 hc         1 ZMO       0.035700
     82 H14A       -15.8300    -1.7800    -0.9260 hc         1 ZMO       0.035700
     83 H15        -14.7320    -3.9640    -0.3750 hc         1 ZMO       0.038200
     84 H15A       -14.4060    -3.3890     1.2450 hc         1 ZMO       0.038200
     85 H16A       -16.8620    -3.1380     1.6540 hc         1 ZMO       0.035200
     86 H16B       -17.1910    -3.7050     0.0320 hc         1 ZMO       0.035200
     87 C17        -16.4730    -5.2330     1.3630 c3         1 ZMO      -0.075400
     88 C18        -17.8460    -5.7120     1.8150 c3         1 ZMO      -0.088100
     89 H50        -16.0970    -5.8880     0.5710 hc         1 ZMO       0.038200
     90 H51        -15.7630    -5.3240     2.1920 hc         1 ZMO       0.038200
     91 H52        -18.2260    -5.0970     2.6330 hc         1 ZMO       0.029700
     92 H53        -18.5700    -5.6580     1.0010 hc         1 ZMO       0.029700
     93 H54        -17.8170    -6.7450     2.1650 hc         1 ZMO       0.029700
     94 O28          8.4210    -4.5330     0.4690 o          1 ZMO      -0.926500
@<TRIPOS>BOND
     1     1     2 1   
     2     2     3 1   
     3     2     4 1   
     4     2    94 1   
     5     4     5 1   
     6     5     6 1   
     7     5    39 1   
     8     5    40 1   
     9     6     7 1   
    10     6     8 1   
    11     6     9 1   
    12     7    41 1   
    13     7    42 1   
    14     7    43 1   
    15     8    44 1   
    16     8    45 1   
    17     8    46 1   
    18     9    10 1   
    19     9    11 1   
    20     9    47 1   
    21    10    48 1   
    22    11    12 2   
    23    11    13 1   
    24    13    14 1   
    25    13    49 1   
    26    14    15 1   
    27    14    50 1   
    28    14    51 1   
    29    15    16 1   
    30    15    52 1   
    31    15    53 1   
    32    16    17 2   
    33    16    18 1   
    34    18    19 1   
    35    18    54 1   
    36    19    20 1   
    37    19    55 1   
    38    19    56 1   
    39    20    21 1   
    40    20    57 1   
    41    20    58 1   
    42    21    22 1   
    43    22    23 2   
    44    22    24 1   
    45    24    25 1   
    46    24    59 1   
    47    24    60 1   
    48    25    26 1   
    49    25    61 1   
    50    25    62 1   
    51    26    27 1   
    52    26    63 1   
    53    26    64 1   
    54    27    28 1   
    55    27    65 1   
    56    27    66 1   
    57    28    29 1   
    58    28    67 1   
    59    28    68 1   
    60    29    30 1   
    61    29    69 1   
    62    29    70 1   
    63    30    31 1   
    64    30    71 1   
    65    30    72 1   
    66    31    32 2   
    67    31    73 1   
    68    32    33 1   
    69    32    74 1   
    70    33    34 1   
    71    33    75 1   
    72    33    76 1   
    73    34    35 1   
    74    34    77 1   
    75    34    78 1   
    76    35    36 1   
    77    35    79 1   
    78    35    80 1   
    79    36    37 1   
    80    36    81 1   
    81    36    82 1   
    82    37    38 1   
    83    37    83 1   
    84    37    84 1   
    85    38    85 1   
    86    38    86 1   
    87    38    87 1   
    88    87    88 1   
    89    87    89 1   
    90    87    90 1   
    91    88    91 1   
    92    88    92 1   
    93    88    93 1   
@<TRIPOS>SUBSTRUCTURE
     1 ZMO         1 TEMP              0 ****  ****    0 ROOT
