@<TRIPOS>MOLECULE
ZNG
   50    55     1     0     0
SMALL
abcg2


@<TRIPOS>ATOM
      1 F3         -14.2210   -25.7530    19.1190 f          1 ZNG      -0.187000
      2 C20        -13.2850   -26.1090    20.0200 ca         1 ZNG       0.161000
      3 C19        -12.7840   -27.4050    19.9520 ca         1 ZNG      -0.135000
      4 C18        -11.8070   -27.8140    20.8440 ca         1 ZNG      -0.061000
      5 C17        -11.3830   -26.8780    21.7680 ca         1 ZNG       0.036100
      6 O1         -10.4390   -27.0630    22.7180 os         1 ZNG      -0.166200
      7 C16        -10.3400   -25.8930    23.3970 cc         1 ZNG      -0.061900
      8 C15        -11.1870   -24.9570    22.9270 cd         1 ZNG      -0.230200
      9 C14        -11.8940   -25.5790    21.8420 ca         1 ZNG      -0.060800
     10 C13        -12.8800   -25.1630    20.9420 ca         1 ZNG      -0.114300
     11 C12        -13.4700   -23.7770    20.9520 c3         1 ZNG       0.299100
     12 N2         -14.8620   -23.7500    21.3590 nu         1 ZNG      -0.935100
     13 C11        -15.2250   -23.8440    22.6400 cc         1 ZNG       0.819400
     14 N1         -14.3420   -23.8860    23.5890 nd         1 ZNG      -0.781000
     15 C10        -14.7640   -23.9780    24.8680 cd         1 ZNG       0.398900
     16 N3         -16.5730   -23.8760    22.9370 na         1 ZNG      -0.201300
     17 C23        -17.6600   -23.8660    22.1040 cc         1 ZNG       0.336700
     18 N4         -18.7590   -23.9050    22.7820 nd         1 ZNG      -0.486300
     19 C22        -18.4260   -23.9230    24.1060 cd         1 ZNG      -0.060600
     20 C          -19.5440   -23.9600    25.0760 c          1 ZNG       0.619200
     21 O          -20.5630   -24.5830    24.8120 o          1 ZNG      -0.532000
     22 C21        -17.0470   -23.9220    24.2460 cc         1 ZNG      -0.041000
     23 C9         -16.0670   -24.0120    25.2820 cc         1 ZNG      -0.130000
     24 C8         -16.3600   -24.1830    26.7170 ca         1 ZNG       0.039000
     25 C2         -17.3280   -23.4310    27.3950 ca         1 ZNG      -0.112300
     26 C1         -18.2630   -22.5090    26.6610 c3         1 ZNG       0.154300
     27 N          -19.4310   -23.2290    26.2010 ns         1 ZNG      -0.504900
     28 C7         -15.6010   -25.0970    27.4490 ca         1 ZNG      -0.118000
     29 C6         -15.7720   -25.2600    28.8140 ca         1 ZNG      -0.050000
     30 C4         -16.7240   -24.5020    29.4780 ca         1 ZNG      -0.197300
     31 C3         -17.4940   -23.5940    28.7610 ca         1 ZNG      -0.050000
     32 C5         -16.9510   -24.6290    30.9510 c3         1 ZNG       0.359300
     33 F          -16.2680   -25.6390    31.4950 f          1 ZNG      -0.112667
     34 F1         -18.2450   -24.8370    31.2350 f          1 ZNG      -0.112667
     35 F2         -16.5950   -23.5130    31.6040 f          1 ZNG      -0.112667
     36 H1         -13.1590   -28.0830    19.1970 ha         1 ZNG       0.139000
     37 H2         -11.3990   -28.8150    20.8080 ha         1 ZNG       0.139000
     38 H3          -9.6200   -25.8710    24.2000 h4         1 ZNG       0.242000
     39 H4         -11.3020   -23.9550    23.3050 ha         1 ZNG       0.224000
     40 H5         -12.8930   -23.1300    21.6110 h1         1 ZNG       0.074200
     41 H6         -13.4280   -23.3350    19.9580 h1         1 ZNG       0.074200
     42 H7         -15.5530   -23.7490    20.6280 hn         1 ZNG       0.512000
     43 H8         -13.9700   -24.0140    25.6050 h4         1 ZNG       0.027100
     44 H9         -17.5920   -23.8240    21.0280 h5         1 ZNG       0.070800
     45 H10        -17.7760   -22.0140    25.8220 h1         1 ZNG       0.064200
     46 H11        -18.6090   -21.7200    27.3270 h1         1 ZNG       0.064200
     47 H12        -20.1830   -23.3400    26.8660 hn         1 ZNG       0.319500
     48 H13        -14.8680   -25.7120    26.9430 ha         1 ZNG       0.124000
     49 H14        -15.1620   -25.9850    29.3360 ha         1 ZNG       0.134000
     50 H15        -18.2420   -22.9920    29.2640 ha         1 ZNG       0.127000
@<TRIPOS>BOND
     1     1     2 1   
     2     2     3 ar  
     3     2    10 ar  
     4     3     4 ar  
     5     3    36 1   
     6     4     5 ar  
     7     4    37 1   
     8     5     6 1   
     9     5     9 ar  
    10     6     7 1   
    11     7     8 2   
    12     7    38 1   
    13     8     9 1   
    14     8    39 1   
    15     9    10 ar  
    16    10    11 1   
    17    11    12 1   
    18    11    40 1   
    19    11    41 1   
    20    12    13 1   
    21    12    42 1   
    22    13    14 2   
    23    13    16 1   
    24    14    15 1   
    25    15    23 2   
    26    15    43 1   
    27    16    17 1   
    28    16    22 1   
    29    17    18 2   
    30    17    44 1   
    31    18    19 1   
    32    19    20 1   
    33    19    22 2   
    34    20    21 2   
    35    20    27 1   
    36    22    23 1   
    37    23    24 1   
    38    24    25 ar  
    39    24    28 ar  
    40    25    26 1   
    41    25    31 ar  
    42    26    27 1   
    43    26    45 1   
    44    26    46 1   
    45    27    47 1   
    46    28    29 ar  
    47    28    48 1   
    48    29    30 ar  
    49    29    49 1   
    50    30    31 ar  
    51    30    32 1   
    52    31    50 1   
    53    32    33 1   
    54    32    34 1   
    55    32    35 1   
@<TRIPOS>SUBSTRUCTURE
     1 ZNG         1 TEMP              0 ****  ****    0 ROOT
