@<TRIPOS>MOLECULE
R3O
   20    20     1     0     0
SMALL
abcg2


@<TRIPOS>ATOM
      1 C1          14.9250    28.3740    -0.0460 c3         1 R3O       0.154900
      2 O1          14.6030    27.8330    -1.3430 os         1 R3O      -0.459100
      3 C2          15.4150    26.8710    -1.8060 c          1 R3O       0.612700
      4 O2          16.3870    26.4770    -1.1980 o          1 R3O      -0.463000
      5 C3          14.9560    26.3310    -3.1140 ca         1 R3O      -0.122600
      6 C4          13.5900    26.1260    -3.3250 ca         1 R3O      -0.085000
      7 C5          13.1370    25.5510    -4.5040 ca         1 R3O      -0.164000
      8 C6          14.0560    25.1780    -5.4810 ca         1 R3O      -0.111000
      9 C7          15.4150    25.3800    -5.2720 ca         1 R3O      -0.112000
     10 C8          15.8870    25.9660    -4.0980 ca         1 R3O      -0.052600
     11 C9          17.3770    26.2610    -3.9750 c          1 R3O       0.713600
     12 O3          18.1520    25.2760    -4.0210 o          1 R3O      -0.708500
     13 O4          17.6910    27.4720    -3.8860 o          1 R3O      -0.708500
     14 H3          14.1610    29.1190     0.1550 h1         1 R3O       0.037033
     15 H1          14.9010    27.5880     0.7070 h1         1 R3O       0.037033
     16 H2          15.9120    28.8340    -0.0660 h1         1 R3O       0.037033
     17 H4          12.8860    26.4050    -2.5530 ha         1 R3O       0.099000
     18 H5          12.0780    25.3910    -4.6570 ha         1 R3O       0.088000
     19 H6          13.7140    24.7300    -6.4060 ha         1 R3O       0.087000
     20 H7          16.1260    25.0920    -6.0360 ha         1 R3O       0.119000
@<TRIPOS>BOND
     1     1     2 1   
     2     1    14 1   
     3     1    15 1   
     4     1    16 1   
     5     2     3 1   
     6     3     4 2   
     7     3     5 1   
     8     5     6 ar  
     9     5    10 ar  
    10     6     7 ar  
    11     6    17 1   
    12     7     8 ar  
    13     7    18 1   
    14     8     9 ar  
    15     8    19 1   
    16     9    10 ar  
    17     9    20 1   
    18    10    11 1   
    19    11    12 1   
    20    11    13 1   
@<TRIPOS>SUBSTRUCTURE
     1 R3O         1 TEMP              0 ****  ****    0 ROOT
