@<TRIPOS>MOLECULE
RAH
   29    29     1     0     0
SMALL
abcg2


@<TRIPOS>ATOM
      1 C1          18.4130    16.4890    79.1950 c5         1 RAH       0.198300
      2 C2          19.4770    15.4960    79.6750 c5         1 RAH       0.079300
      3 C3          19.5030    14.4780    78.5440 c5         1 RAH       0.079300
      4 C4          19.0340    15.2800    77.2930 c5         1 RAH       0.388000
      5 C5          17.8290    14.6170    76.6380 c3         1 RAH       0.265600
      6 C6          18.5120    17.8470    79.8520 c3         1 RAH      -0.348400
      7 S1          17.1030    18.9460    79.5970 s6         1 RAH       1.351600
      8 O2          20.0410    15.4430    76.3420 oh         1 RAH      -0.660000
      9 O3          17.3710    15.3900    75.5610 os         1 RAH      -0.551400
     10 O4          15.8690    16.0130    73.6900 o          1 RAH      -0.937167
     11 O5          14.9370    14.6010    75.6140 o          1 RAH      -0.937167
     12 O6          16.5750    13.5640    73.9600 o          1 RAH      -0.937167
     13 O7          20.7840    13.9200    78.2940 oh         1 RAH      -0.733000
     14 O8          19.1870    14.8620    80.9100 oh         1 RAH      -0.737000
     15 O9          15.9220    18.1910    80.0320 o          1 RAH      -0.700533
     16 O10         17.3880    20.1070    80.4500 o          1 RAH      -0.700533
     17 O11         17.0670    19.2870    78.1730 o          1 RAH      -0.700533
     18 O1          18.6700    16.5810    77.7940 os         1 RAH      -0.415000
     19 P1          16.0810    14.8390    74.6340 p5         1 RAH       1.289900
     20 H1          17.4230    16.0590    79.3790 h1         1 RAH       0.085700
     21 H2          20.4450    16.0020    79.7180 h1         1 RAH       0.021700
     22 H3          18.7820    13.6860    78.7620 h1         1 RAH       0.067700
     23 H4          17.0490    14.5000    77.3980 h1         1 RAH       0.001700
     24 H5          18.1320    13.6150    76.3130 h1         1 RAH       0.001700
     25 H6          18.5730    17.7180    80.9330 h1         1 RAH       0.049700
     26 H7          19.4020    18.3750    79.5130 h1         1 RAH       0.049700
     27 H8          20.8920    15.3290    76.7830 ho         1 RAH       0.465000
     28 H11         21.1160    13.5300    79.1100 ho         1 RAH       0.478000
     29 H12         19.4510    15.4420    81.6310 ho         1 RAH       0.486000
@<TRIPOS>BOND
     1     1     2 1   
     2     1     6 1   
     3     1    18 1   
     4     1    20 1   
     5     2     3 1   
     6     2    14 1   
     7     2    21 1   
     8     3     4 1   
     9     3    13 1   
    10     3    22 1   
    11     4     5 1   
    12     4     8 1   
    13     4    18 1   
    14     5     9 1   
    15     5    23 1   
    16     5    24 1   
    17     6     7 1   
    18     6    25 1   
    19     6    26 1   
    20     7    15 1   
    21     7    16 1   
    22     7    17 1   
    23     8    27 1   
    24     9    19 1   
    25    10    19 1   
    26    11    19 1   
    27    12    19 1   
    28    13    28 1   
    29    14    29 1   
@<TRIPOS>SUBSTRUCTURE
     1 RAH         1 TEMP              0 ****  ****    0 ROOT
