@<TRIPOS>MOLECULE
RE3
   28    29     1     0     0
SMALL
abcg2


@<TRIPOS>ATOM
      1 N           -2.3180    -0.2920    -1.6450 n8         1 RE3      -1.006200
      2 CA          -1.8990    -0.3390    -0.2550 c3         1 RE3       0.017500
      3 CB          -0.9640     0.7900     0.2050 c3         1 RE3      -0.076400
      4 CG           0.4050     0.8980    -0.4890 c5         1 RE3       0.158300
      5 OG           0.2200     1.3480    -1.8030 oh         1 RE3      -0.619000
      6 CD1          1.2320     1.9050     0.3530 c          1 RE3       0.527000
      7 OD1          1.0240     3.0930     0.4480 o          1 RE3      -0.521000
      8 NE1          2.2080     1.2010     0.9850 ns         1 RE3      -0.154000
      9 CE2          2.2540    -0.1220     0.5560 ca         1 RE3      -0.022000
     10 CZ2          3.1630    -1.1030     0.9040 ca         1 RE3      -0.163000
     11 CH2          3.0310    -2.3470     0.2890 ca         1 RE3      -0.081000
     12 CZ3          2.0310    -2.5880    -0.6430 ca         1 RE3      -0.152000
     13 CE3          1.1180    -1.5860    -0.9720 ca         1 RE3      -0.027000
     14 CD2          1.2260    -0.3570    -0.3540 ca         1 RE3      -0.163300
     15 C           -3.1310    -0.3300     0.6950 c          1 RE3       0.720000
     16 O           -4.2110     0.0750     0.2230 o          1 RE3      -0.726000
     17 H           -3.1290     0.3110    -1.7020 hn         1 RE3       0.391500
     18 HA          -1.3800    -1.2870    -0.0730 h1         1 RE3       0.043700
     19 H10         -1.4690     1.7570     0.0950 hc         1 RE3       0.068200
     20 H10A        -0.7810     0.6530     1.2740 hc         1 RE3       0.068200
     21 HOG          1.0590     1.3090    -2.2760 ho         1 RE3       0.432000
     22 HNE1         2.8890     1.6190     1.6020 hn         1 RE3       0.158000
     23 H17          3.9550    -0.9120     1.6160 ha         1 RE3       0.109000
     24 H18          3.7320    -3.1330     0.5380 ha         1 RE3       0.100000
     25 H19          1.9600    -3.5580    -1.1180 ha         1 RE3       0.110000
     26 H20          0.3420    -1.7740    -1.7030 ha         1 RE3       0.142000
     27 H2          -1.5990     0.1180    -2.2240 hn         1 RE3       0.391500
     28 OXT         -2.9150    -0.7030     1.8640 o          1 RE3      -0.726000
@<TRIPOS>BOND
     1     1     2 1   
     2     1    17 1   
     3     1    27 1   
     4     2     3 1   
     5     2    15 1   
     6     2    18 1   
     7     3     4 1   
     8     3    19 1   
     9     3    20 1   
    10     4     5 1   
    11     4     6 1   
    12     4    14 1   
    13     5    21 1   
    14     6     7 2   
    15     6     8 1   
    16     8     9 1   
    17     8    22 1   
    18     9    10 ar  
    19     9    14 ar  
    20    10    11 ar  
    21    10    23 1   
    22    11    12 ar  
    23    11    24 1   
    24    12    13 ar  
    25    12    25 1   
    26    13    14 ar  
    27    13    26 1   
    28    15    16 1   
    29    15    28 1   
@<TRIPOS>SUBSTRUCTURE
     1 RE3         1 TEMP              0 ****  ****    0 ROOT
