@<TRIPOS>MOLECULE
REK
   43    44     1     0     0
SMALL
abcg2


@<TRIPOS>ATOM
      1 C04         -5.2250   -44.2500   130.5410 c3         1 REK       0.127500
      2 C05         -5.1180   -45.0700   129.2360 c          1 REK       0.733000
      3 C08         -6.6710   -44.3660   131.0450 c3         1 REK      -0.191400
      4 C09         -7.0610   -43.4820   132.2470 c          1 REK       0.709000
      5 C12         -2.0360   -46.2970   131.3800 c3         1 REK      -0.187400
      6 C14         -2.1700   -48.3170   132.6710 c3         1 REK       0.154300
      7 C15         -0.8130   -48.8040   132.1810 c3         1 REK      -0.109100
      8 C16         -3.2860   -49.0510   131.9260 c3         1 REK       0.047600
      9 C18         -5.3380   -49.7690   133.1750 ca         1 REK       0.063500
     10 C20         -6.0080   -51.6550   134.0820 ca         1 REK       0.115900
     11 C22         -7.4590   -49.8770   134.2310 ca         1 REK       0.417900
     12 C24         -6.5060   -49.1120   133.5360 ca         1 REK      -0.060600
     13 C26         -5.3300   -47.6880   132.5050 cc         1 REK       0.512700
     14 N03         -4.3060   -44.6790   131.5780 n7         1 REK      -0.978500
     15 N17         -4.5940   -48.8390   132.5100 na         1 REK      -0.256300
     16 N19         -5.0390   -51.0430   133.4250 nb         1 REK      -0.217000
     17 N21         -7.1730   -51.1570   134.4910 nb         1 REK      -0.344000
     18 N25         -6.4810   -47.8110   133.1090 nd         1 REK      -0.571100
     19 O01         -2.3040   -44.0270   129.9820 o          1 REK      -0.852500
     20 O06         -5.3770   -44.4480   128.1840 o          1 REK      -0.786500
     21 O07         -4.8600   -46.2880   129.3270 o          1 REK      -0.786500
     22 O10         -8.2150   -43.0130   132.2440 o          1 REK      -0.780500
     23 O11         -6.2100   -43.3270   133.1560 o          1 REK      -0.780500
     24 O13         -2.3300   -46.9170   132.6200 os         1 REK      -0.400000
     25 O27         -2.0410   -43.8580   132.5850 o          1 REK      -0.852500
     26 P02         -2.6200   -44.5460   131.3680 p5         1 REK       1.378300
     27 H1          -5.0610   -43.1960   130.2680 h1         1 REK       0.007700
     28 H2          -7.3480   -44.1460   130.2160 hc         1 REK       0.016700
     29 H3          -6.8590   -45.4110   131.3240 hc         1 REK       0.016700
     30 H4          -2.5100   -46.8150   130.5400 h1         1 REK       0.026700
     31 H5          -0.9550   -46.2970   131.1860 h1         1 REK       0.026700
     32 H6          -2.2630   -48.5710   133.7320 h1         1 REK       0.042700
     33 H7          -0.0060   -48.2410   132.6500 hc         1 REK       0.023367
     34 H8          -0.6810   -49.8550   132.4420 hc         1 REK       0.023367
     35 H9          -0.7050   -48.7180   131.0990 hc         1 REK       0.023367
     36 H10         -3.3140   -48.7630   130.8740 h1         1 REK       0.065700
     37 H11         -3.0930   -50.1230   131.9570 h1         1 REK       0.065700
     38 H13         -4.9690   -46.7790   132.0320 h5         1 REK       0.182800
     39 H14         -4.6240   -44.2870   132.4600 hn         1 REK       0.472000
     40 H15         -9.2520   -49.9360   135.1920 hn         1 REK       0.490500
     41 H16         -8.8390   -48.4000   134.5280 hn         1 REK       0.490500
     42 N23         -8.6400   -49.3810   134.6190 nv         1 REK      -1.083900
     43 H12         -5.8380   -52.6990   134.3230 h5         1 REK       0.003100
@<TRIPOS>BOND
     1     1     2 1   
     2     1     3 1   
     3     1    14 1   
     4     1    27 1   
     5     2    20 1   
     6     2    21 1   
     7     3     4 1   
     8     3    28 1   
     9     3    29 1   
    10     4    22 1   
    11     4    23 1   
    12     5    24 1   
    13     5    26 1   
    14     5    30 1   
    15     5    31 1   
    16     6     7 1   
    17     6     8 1   
    18     6    24 1   
    19     6    32 1   
    20     7    33 1   
    21     7    34 1   
    22     7    35 1   
    23     8    15 1   
    24     8    36 1   
    25     8    37 1   
    26     9    12 ar  
    27     9    15 1   
    28     9    16 ar  
    29    10    16 ar  
    30    10    17 ar  
    31    10    43 1   
    32    11    12 ar  
    33    11    17 ar  
    34    11    42 1   
    35    12    18 1   
    36    13    15 1   
    37    13    18 2   
    38    13    38 1   
    39    14    26 1   
    40    14    39 1   
    41    19    26 1   
    42    25    26 1   
    43    40    42 1   
    44    41    42 1   
@<TRIPOS>SUBSTRUCTURE
     1 REK         1 TEMP              0 ****  ****    0 ROOT
