@<TRIPOS>MOLECULE
RIA
   55    58     1     0     0
SMALL
abcg2


@<TRIPOS>ATOM
      1 P            9.3500     9.7210   -17.1090 p5         1 RIA       1.271900
      2 OP1          8.8630     8.6840   -16.1030 o          1 RIA      -0.924167
      3 OP2          8.4950    10.9770   -17.2230 o          1 RIA      -0.924167
      4 OP3          9.8330     9.1400   -18.4350 o          1 RIA      -0.924167
      5 O5A         10.7660    10.3920   -16.3880 os         1 RIA      -0.598400
      6 C5A         11.9090     9.6110   -16.2710 c3         1 RIA       0.253600
      7 C4A         13.1610    10.4500   -16.4350 c5         1 RIA       0.153300
      8 O4          13.2620    10.9470   -17.7700 os         1 RIA      -0.422000
      9 C3A         13.2250    11.6940   -15.5570 c5         1 RIA       0.101300
     10 O3A         13.6440    11.3450   -14.2690 oh         1 RIA      -0.714000
     11 C2A         14.1610    12.6090   -16.3550 c5         1 RIA       0.100300
     12 O2A         15.5160    12.2550   -16.2100 os         1 RIA      -0.463000
     13 C1A         13.7630    12.2460   -17.7930 c5         1 RIA       0.315300
     14 N9          12.7560    13.1420   -18.3450 na         1 RIA      -0.305300
     15 C8          11.3910    13.0400   -18.2820 cc         1 RIA       0.468700
     16 N7          10.7780    14.0170   -18.8880 nd         1 RIA      -0.603100
     17 C5          11.7860    14.8080   -19.3760 ca         1 RIA      -0.105600
     18 C6          11.8000    16.0030   -20.1180 ca         1 RIA       0.397900
     19 N6          10.6830    16.6180   -20.5150 nv         1 RIA      -1.108900
     20 N1          12.9870    16.5380   -20.4300 nb         1 RIA      -0.332000
     21 C2          14.1010    15.9210   -20.0400 ca         1 RIA       0.154900
     22 N3          14.2130    14.7940   -19.3580 nb         1 RIA      -0.141000
     23 C4          13.0250    14.2800   -19.0470 ca         1 RIA       0.096500
     24 C1          16.2290    12.8610   -15.1600 c5         1 RIA       0.388300
     25 O1          16.1880    14.2570   -15.2310 os         1 RIA      -0.496000
     26 C9          17.6930    12.4800   -15.3480 c5         1 RIA       0.131300
     27 O2          18.3520    12.6580   -14.1200 oh         1 RIA      -0.755000
     28 C3          18.1160    13.5270   -16.3720 c5         1 RIA       0.116300
     29 O3          19.5110    13.6850   -16.3820 oh         1 RIA      -0.779000
     30 C10         17.3460    14.7630   -15.8920 c5         1 RIA       0.109300
     31 C7          16.9830    15.6990   -17.0310 c3         1 RIA       0.232600
     32 O5          18.1790    16.0600   -17.6600 os         1 RIA      -0.613400
     33 P1          18.3760    15.7620   -19.3460 p5         1 RIA       1.266900
     34 O1X         19.8790    15.9660   -19.4710 o          1 RIA      -0.921500
     35 O2X         17.5150    16.8260   -20.0260 o          1 RIA      -0.921500
     36 O3X         17.8920    14.3300   -19.5630 o          1 RIA      -0.921500
     37 H5          11.9840     9.1270   -15.2850 h1         1 RIA       0.000200
     38 H5'         11.9390     8.8000   -17.0110 h1         1 RIA       0.000200
     39 H4A         14.0300     9.8120   -16.2210 h1         1 RIA       0.025700
     40 H3A         12.2350    12.1670   -15.5370 h1         1 RIA       0.086700
     41 HO3A        13.3710    12.0320   -13.6550 ho         1 RIA       0.482000
     42 H2A         14.0030    13.6730   -16.1570 h1         1 RIA       0.075700
     43 H1A         14.6330    12.3210   -18.4540 h2         1 RIA       0.127700
     44 H8          10.9030    12.2230   -17.7710 h5         1 RIA       0.147800
     45 HN61        10.7340    17.4680   -21.0500 hn         1 RIA       0.477500
     46 HN62         9.7770    16.2380   -20.3050 hn         1 RIA       0.477500
     47 H2          15.0370    16.4070   -20.3040 h5         1 RIA       0.113100
     48 H1          15.8260    12.5590   -14.1900 h2         1 RIA       0.054700
     49 H6          17.8020    11.4530   -15.7180 h1         1 RIA       0.058700
     50 HO2         19.2610    12.9180   -14.3090 ho         1 RIA       0.514000
     51 H3          17.7520    13.2390   -17.3640 h1         1 RIA       0.141700
     52 HO3         19.6940    14.4520   -16.9400 ho         1 RIA       0.573000
     53 H4          17.9560    15.3060   -15.1570 h1         1 RIA       0.022700
     54 H5'1        16.2830    15.1860   -17.7000 h1         1 RIA       0.018200
     55 H5'2        16.4600    16.5850   -16.6430 h1         1 RIA       0.018200
@<TRIPOS>BOND
     1     1     2 1   
     2     1     3 1   
     3     1     4 1   
     4     1     5 1   
     5     5     6 1   
     6     6     7 1   
     7     6    37 1   
     8     6    38 1   
     9     7     8 1   
    10     7     9 1   
    11     7    39 1   
    12     8    13 1   
    13     9    10 1   
    14     9    11 1   
    15     9    40 1   
    16    10    41 1   
    17    11    12 1   
    18    11    13 1   
    19    11    42 1   
    20    12    24 1   
    21    13    14 1   
    22    13    43 1   
    23    14    15 1   
    24    14    23 1   
    25    15    16 2   
    26    15    44 1   
    27    16    17 1   
    28    17    18 ar  
    29    17    23 ar  
    30    18    19 1   
    31    18    20 ar  
    32    19    45 1   
    33    19    46 1   
    34    20    21 ar  
    35    21    22 ar  
    36    21    47 1   
    37    22    23 ar  
    38    24    25 1   
    39    24    26 1   
    40    24    48 1   
    41    25    30 1   
    42    26    27 1   
    43    26    28 1   
    44    26    49 1   
    45    27    50 1   
    46    28    29 1   
    47    28    30 1   
    48    28    51 1   
    49    29    52 1   
    50    30    31 1   
    51    30    53 1   
    52    31    32 1   
    53    31    54 1   
    54    31    55 1   
    55    32    33 1   
    56    33    34 1   
    57    33    35 1   
    58    33    36 1   
@<TRIPOS>SUBSTRUCTURE
     1 RIA         1 TEMP              0 ****  ****    0 ROOT
