@<TRIPOS>MOLECULE
RMB
   38    40     1     0     0
SMALL
abcg2


@<TRIPOS>ATOM
      1 N3          55.7010    42.5300    13.0510 nc         1 RMB      -0.618100
      2 N1          56.5960    41.1570    11.5200 na         1 RMB      -0.163600
      3 C2          55.4640    41.6810    12.0820 cd         1 RMB       0.423700
      4 C7A         57.6690    41.7210    12.1990 ca         1 RMB      -0.040200
      5 C3A         57.0870    42.5840    13.1480 ca         1 RMB       0.054400
      6 C4          57.8900    43.3410    14.0040 ca         1 RMB      -0.075000
      7 C5          59.2700    43.2280    13.9030 ca         1 RMB      -0.118300
      8 C6          59.8260    42.3590    12.9410 ca         1 RMB      -0.120000
      9 C7          59.0510    41.5990    12.0800 ca         1 RMB      -0.059000
     10 C8          60.1790    44.0150    14.8110 c3         1 RMB      -0.030800
     11 P           58.9110    39.1940     5.6860 p5         1 RMB       1.264900
     12 O1P         58.7150    37.7880     5.1290 o          1 RMB      -0.924833
     13 O2P         58.6960    40.3100     4.6780 o          1 RMB      -0.924833
     14 O3P         60.1790    39.3390     6.5210 o          1 RMB      -0.924833
     15 O5          57.6200    39.4420     6.7420 os         1 RMB      -0.562400
     16 C11         57.5100    38.6040     7.8750 c3         1 RMB       0.236600
     17 C10         58.2050    39.1930     9.0960 c5         1 RMB       0.112300
     18 O4          57.5660    40.4170     9.5320 os         1 RMB      -0.416000
     19 C3          58.1660    38.2700    10.3050 c5         1 RMB       0.117300
     20 O3          59.2910    38.5020    11.1410 oh         1 RMB      -0.714000
     21 C9          56.8570    38.6810    11.0110 c5         1 RMB       0.067300
     22 O2          56.9570    38.6370    12.4230 oh         1 RMB      -0.716000
     23 C1          56.5830    40.1300    10.5010 c5         1 RMB       0.318300
     24 H21         54.4870    41.3920    11.7280 h5         1 RMB       0.048800
     25 H41         57.4400    44.0040    14.7310 ha         1 RMB       0.103000
     26 H61         60.9040    42.2850    12.8730 ha         1 RMB       0.105000
     27 H71         59.4990    40.9360    11.3600 ha         1 RMB       0.166000
     28 H81         60.9010    44.5990    14.2370 hc         1 RMB       0.026033
     29 H82         59.6130    44.7000    15.4400 hc         1 RMB       0.026033
     30 H83         60.7510    43.3530    15.4630 hc         1 RMB       0.026033
     31 H5'1        56.4460    38.4620     8.0860 h1         1 RMB      -0.004300
     32 H5'2        57.9400    37.6200     7.6720 h1         1 RMB      -0.004300
     33 H4          59.2230    39.4540     8.8260 h1         1 RMB       0.167700
     34 H3          58.1390    37.2200    10.0090 h1         1 RMB       0.060700
     35 HO3         58.9680    38.4990    12.0530 ho         1 RMB       0.495000
     36 H2          56.0450    38.0410    10.6720 h1         1 RMB       0.045700
     37 HO2         56.6490    37.7780    12.7300 ho         1 RMB       0.494000
     38 H1          55.5860    40.1710    10.0610 h2         1 RMB       0.059700
@<TRIPOS>BOND
     1     1     3 2   
     2     1     5 1   
     3     2     3 1   
     4     2     4 1   
     5     2    23 1   
     6     3    24 1   
     7     4     5 ar  
     8     4     9 ar  
     9     5     6 ar  
    10     6     7 ar  
    11     6    25 1   
    12     7     8 ar  
    13     7    10 1   
    14     8     9 ar  
    15     8    26 1   
    16     9    27 1   
    17    10    28 1   
    18    10    29 1   
    19    10    30 1   
    20    11    12 1   
    21    11    13 1   
    22    11    14 1   
    23    11    15 1   
    24    15    16 1   
    25    16    17 1   
    26    16    31 1   
    27    16    32 1   
    28    17    18 1   
    29    17    19 1   
    30    17    33 1   
    31    18    23 1   
    32    19    20 1   
    33    19    21 1   
    34    19    34 1   
    35    20    35 1   
    36    21    22 1   
    37    21    23 1   
    38    21    36 1   
    39    22    37 1   
    40    23    38 1   
@<TRIPOS>SUBSTRUCTURE
     1 RMB         1 TEMP              0 ****  ****    0 ROOT
