@<TRIPOS>MOLECULE
RMP
   37    39     1     0     0
SMALL
abcg2


@<TRIPOS>ATOM
      1 P            2.9200     5.0560    -3.2280 p5         1 RMP       1.406400
      2 CMP          2.1630     5.0480    -4.8900 c3         1 RMP      -0.474100
      3 OP1          1.9020     5.5400    -2.2260 o          1 RMP      -0.818000
      4 O5           3.2060     3.4350    -2.9900 os         1 RMP      -0.577400
      5 C5           2.1400     2.5340    -2.8180 c3         1 RMP       0.231600
      6 C4           2.3660     1.6630    -1.6050 c5         1 RMP       0.106300
      7 O4           2.3850     2.4510    -0.4120 os         1 RMP      -0.412000
      8 C1           1.6110     1.8650     0.5860 c5         1 RMP       0.323300
      9 N9           0.3930     2.6640     0.7680 na         1 RMP      -0.311300
     10 C8          -0.0040     3.7800     0.0810 cc         1 RMP       0.449700
     11 N7          -1.1310     4.2740     0.5130 nd         1 RMP      -0.576100
     12 C7          -1.4930     3.4510     1.5460 ca         1 RMP      -0.086600
     13 C6          -2.5900     3.4400     2.4270 ca         1 RMP       0.436900
     14 N6          -3.5680     4.3480     2.3760 nv         1 RMP      -1.072900
     15 N1          -2.6350     2.4840     3.3620 nb         1 RMP      -0.318000
     16 C2          -1.6530     1.5880     3.4210 ca         1 RMP       0.157900
     17 N3          -0.5830     1.4900     2.6520 nb         1 RMP      -0.223000
     18 C9          -0.5520     2.4480     1.7250 ca         1 RMP       0.098500
     19 C3           1.2660     0.6160    -1.3900 c5         1 RMP       0.132300
     20 C10          1.3000     0.4520     0.1190 c5         1 RMP      -0.123400
     21 O3           1.5000    -0.6020    -2.0380 oh         1 RMP      -0.713000
     22 OP3          4.2890     5.6710    -3.2820 o          1 RMP      -0.818000
     23 HMP1         1.9140     6.0650    -5.1930 hc         1 RMP       0.037367
     24 HMP2         2.8420     4.6330    -5.6360 hc         1 RMP       0.037367
     25 HMP3         1.2410     4.4650    -4.9090 hc         1 RMP       0.037367
     26 H5           1.1730     3.0420    -2.7230 h1         1 RMP       0.012700
     27 H5'          2.0650     1.8750    -3.6930 h1         1 RMP       0.012700
     28 H4           3.3300     1.1460    -1.6960 h1         1 RMP       0.075700
     29 H1           2.1500     1.8840     1.5360 h2         1 RMP       0.093700
     30 H8           0.5860     4.2050    -0.7200 h5         1 RMP       0.139800
     31 H61         -4.3740     4.2520     2.9690 hn         1 RMP       0.498500
     32 H62         -3.6100     5.0180     1.6280 hn         1 RMP       0.498500
     33 H2          -1.7490     0.8430     4.2040 h5         1 RMP       0.031100
     34 H3           0.2960     1.0420    -1.6890 h1         1 RMP       0.044700
     35 H7           0.3850     0.0460     0.5470 hc         1 RMP       0.078200
     36 H2'          2.1280    -0.2040     0.4000 hc         1 RMP       0.078200
     37 HO3          1.2650    -0.5100    -2.9660 ho         1 RMP       0.508000
@<TRIPOS>BOND
     1     1     2 1   
     2     1     3 1   
     3     1     4 1   
     4     1    22 1   
     5     2    23 1   
     6     2    24 1   
     7     2    25 1   
     8     4     5 1   
     9     5     6 1   
    10     5    26 1   
    11     5    27 1   
    12     6     7 1   
    13     6    19 1   
    14     6    28 1   
    15     7     8 1   
    16     8     9 1   
    17     8    20 1   
    18     8    29 1   
    19     9    10 1   
    20     9    18 1   
    21    10    11 2   
    22    10    30 1   
    23    11    12 1   
    24    12    13 ar  
    25    12    18 ar  
    26    13    14 1   
    27    13    15 ar  
    28    14    31 1   
    29    14    32 1   
    30    15    16 ar  
    31    16    17 ar  
    32    16    33 1   
    33    17    18 ar  
    34    19    20 1   
    35    19    21 1   
    36    19    34 1   
    37    20    35 1   
    38    20    36 1   
    39    21    37 1   
@<TRIPOS>SUBSTRUCTURE
     1 RMP         1 TEMP              0 ****  ****    0 ROOT
