@<TRIPOS>MOLECULE
RVP
   32    33     1     0     0
SMALL
abcg2


@<TRIPOS>ATOM
      1 P           68.0520    54.9610    14.9630 p5         1 RVP       1.271900
      2 O1P         67.4900    54.8760    13.5480 o          1 RVP      -0.925167
      3 O2P         68.6790    53.6580    15.4490 o          1 RVP      -0.925167
      4 O3P         68.8720    56.2090    15.2540 o          1 RVP      -0.925167
      5 O5          66.7110    55.2100    15.9630 os         1 RVP      -0.570400
      6 C5          65.6890    54.2420    15.9610 c3         1 RVP       0.244600
      7 C4          64.6740    54.5680    17.0270 c5         1 RVP       0.153300
      8 O4          63.9520    55.7710    16.6780 os         1 RVP      -0.398000
      9 C3          63.5930    53.5050    17.1980 c5         1 RVP       0.138300
     10 O3          64.0640    52.4630    18.0220 oh         1 RVP      -0.669000
     11 C2          62.4100    54.3140    17.7550 c5         1 RVP       0.079300
     12 O2          62.5860    54.4680    19.1510 oh         1 RVP      -0.681000
     13 C1          62.5930    55.6710    17.0460 c5         1 RVP       0.276300
     14 N9          61.7460    55.8500    15.8650 na         1 RVP      -0.062700
     15 C8          61.5390    55.0480    14.7980 cc         1 RVP       0.438400
     16 N7          60.7020    55.6210    13.9560 nd         1 RVP      -0.668000
     17 C7          60.4160    56.8070    14.5600 cd         1 RVP       0.462500
     18 C6          59.4880    57.8210    13.9780 c          1 RVP       0.549600
     19 O6          58.8770    57.5980    12.9370 o          1 RVP      -0.599100
     20 N1          59.3880    58.9640    14.6770 nt         1 RVP      -0.606000
     21 N4          61.0330    56.9840    15.7160 nc         1 RVP      -0.537800
     22 H5'1        65.1850    54.2000    14.9870 h1         1 RVP       0.016200
     23 H5'2        66.0930    53.2440    16.1750 h1         1 RVP       0.016200
     24 H4          65.1810    54.7270    17.9840 h1         1 RVP       0.087700
     25 H3          63.3130    53.1150    16.2150 h1         1 RVP       0.039700
     26 HO'3        63.4510    51.7200    17.9670 ho         1 RVP       0.481000
     27 H2          61.4420    53.8640    17.5270 h1         1 RVP       0.030700
     28 HO'2        61.7990    54.8970    19.5120 ho         1 RVP       0.484000
     29 H1          62.3150    56.4900    17.7070 h2         1 RVP       0.081700
     30 HC8         62.0050    54.0850    14.6760 h5         1 RVP       0.077100
     31 HN1         59.8980    59.0990    15.5350 hn         1 RVP       0.318500
     32 HN2         58.7610    59.6860    14.3600 hn         1 RVP       0.318500
@<TRIPOS>BOND
     1     1     2 1   
     2     1     3 1   
     3     1     4 1   
     4     1     5 1   
     5     5     6 1   
     6     6     7 1   
     7     6    22 1   
     8     6    23 1   
     9     7     8 1   
    10     7     9 1   
    11     7    24 1   
    12     8    13 1   
    13     9    10 1   
    14     9    11 1   
    15     9    25 1   
    16    10    26 1   
    17    11    12 1   
    18    11    13 1   
    19    11    27 1   
    20    12    28 1   
    21    13    14 1   
    22    13    29 1   
    23    14    15 1   
    24    14    21 1   
    25    15    16 2   
    26    15    30 1   
    27    16    17 1   
    28    17    18 1   
    29    17    21 2   
    30    18    19 2   
    31    18    20 1   
    32    20    31 1   
    33    20    32 1   
@<TRIPOS>SUBSTRUCTURE
     1 RVP         1 TEMP              0 ****  ****    0 ROOT
