@<TRIPOS>MOLECULE
N5G
   72    74     1     0     0
SMALL
abcg2


@<TRIPOS>ATOM
      1 N1         -11.1920    15.6200     5.6750 n7         1 N5G      -0.885400
      2 C2         -11.0810    16.8550     4.9380 c6         1 N5G       0.624900
      3 NA2        -12.3630    17.2140     4.3800 n8         1 N5G      -0.994200
      4 N3         -10.5320    17.9070     5.8020 n7         1 N5G      -0.986400
      5 C4          -9.6430    17.4400     6.8660 c6         1 N5G       0.428500
      6 O4          -8.8140    18.4850     7.2350 oh         1 N5G      -0.787000
      7 C4A         -8.8690    16.2030     6.3510 c6         1 N5G       0.011300
      8 N5          -7.6530    15.7800     7.1390 n4         1 N5G      -0.239000
      9 C6          -7.9770    14.8740     8.2970 c6         1 N5G       0.065300
     10 C7          -8.9510    13.7820     7.8860 c6         1 N5G       0.154800
     11 N8         -10.1600    14.3740     7.3490 n7         1 N5G      -0.883400
     12 C8A         -9.9060    15.0820     6.1160 c6         1 N5G       0.398700
     13 C9          -8.4910    15.6550     9.5210 c3         1 N5G       0.179800
     14 N10         -7.4820    16.2410    10.3850 n7         1 N5G      -0.889400
     15 C11         -5.5710    14.6830    13.9030 c6         1 N5G      -0.137700
     16 C12         -6.8830    14.0400    13.4400 c6         1 N5G      -0.071900
     17 C13         -7.6300    14.9460    12.4700 c6         1 N5G      -0.071900
     18 C14         -6.7820    15.3080    11.2530 c6         1 N5G       0.174500
     19 C15         -5.4730    15.9380    11.7170 c6         1 N5G      -0.071900
     20 C16         -4.7150    15.0430    12.6910 c6         1 N5G      -0.071900
     21 C           -4.9090    13.8030    14.9580 c          1 N5G       0.591100
     22 O           -5.5260    13.4920    15.9760 o          1 N5G      -0.705100
     23 N           -3.6580    13.4070    14.7150 ns         1 N5G      -0.446900
     24 CA          -2.8460    12.6040    15.6020 c3         1 N5G      -0.040300
     25 CB          -3.1920    11.1110    15.5130 c3         1 N5G      -0.040400
     26 CG          -2.9890    10.5120    14.1300 c3         1 N5G      -0.199400
     27 CD          -3.3820     9.0290    13.9690 c          1 N5G       0.715000
     28 OE2         -3.9440     8.4640    14.9300 o          1 N5G      -0.777000
     29 OE1         -3.1080     8.5140    12.8640 o          1 N5G      -0.777000
     30 CT          -1.3500    12.8480    15.2770 c          1 N5G       0.718000
     31 O1          -1.0930    13.4950    14.2400 o          1 N5G      -0.747500
     32 O2          -0.5390    12.3600    16.0820 o          1 N5G      -0.747500
     33 CP1         -6.6150    15.0610     6.0680 c3         1 N5G       0.281800
     34 O3          -7.0080    13.9320     5.6000 o          1 N5G      -0.799500
     35 P1          -4.8720    15.0130     6.8390 p5         1 N5G       1.198400
     36 O8          -6.9840    16.8910     7.5850 o          1 N5G      -0.643000
     37 O9          -4.0580    16.2500     6.5120 o          1 N5G      -0.826000
     38 O10         -4.8190    14.4400     8.2490 o          1 N5G      -0.826000
     39 HN1        -11.7710    15.7750     6.4970 hn         1 N5G       0.412000
     40 H2         -10.4230    16.6610     4.0800 h3         1 N5G       0.044700
     41 HNA2       -12.9510    17.5810     5.1210 hn         1 N5G       0.377000
     42 HNAA       -12.2390    17.9800     3.7300 hn         1 N5G       0.377000
     43 HN3        -10.0210    18.5810     5.2430 hn         1 N5G       0.405000
     44 H4         -10.2760    17.1260     7.7110 h2         1 N5G       0.037700
     45 HO4         -7.9460    17.9920     7.4540 ho         1 N5G       0.545000
     46 H4A         -8.4540    16.4940     5.3800 hx         1 N5G       0.068700
     47 H6          -7.0270    14.4070     8.5590 hx         1 N5G       0.144700
     48 H7          -8.4670    13.0960     7.1880 h1         1 N5G       0.052700
     49 H7A         -9.2130    13.2130     8.7810 h1         1 N5G       0.052700
     50 HN8        -10.8410    13.6470     7.1660 hn         1 N5G       0.381000
     51 H8A         -9.5160    14.4240     5.3300 h2         1 N5G       0.080700
     52 H9          -9.1890    16.4380     9.2240 h1         1 N5G       0.024700
     53 H9A         -9.0900    14.9600    10.1150 h1         1 N5G       0.024700
     54 HN10        -6.8200    16.7110     9.7800 hn         1 N5G       0.463000
     55 H11         -5.8290    15.6160    14.4220 hc         1 N5G       0.031700
     56 H12         -6.6610    13.0820    12.9560 hc         1 N5G       0.051700
     57 H12A        -7.5150    13.8180    14.3000 hc         1 N5G       0.051700
     58 H13         -8.5580    14.4580    12.1630 hc         1 N5G       0.030200
     59 H13A        -7.9160    15.8730    12.9800 hc         1 N5G       0.030200
     60 H14         -6.5210    14.3690    10.7340 h1         1 N5G       0.066700
     61 H15         -4.8420    16.1470    10.8480 hc         1 N5G       0.030200
     62 H15A        -5.6910    16.9010    12.1910 hc         1 N5G       0.030200
     63 H16         -4.4130    14.1280    12.1690 hc         1 N5G       0.051700
     64 H16A        -3.7980    15.5520    13.0000 hc         1 N5G       0.051700
     65 HN          -3.1580    13.7440    13.9060 hn         1 N5G       0.346500
     66 HA          -3.0230    12.9310    16.6310 h1         1 N5G       0.022700
     67 HB          -2.5820    10.5810    16.2470 hc         1 N5G       0.029200
     68 HBA         -4.2290    10.9720    15.8250 hc         1 N5G       0.029200
     69 HG          -3.5580    11.0870    13.3900 hc         1 N5G       0.034700
     70 HGA         -1.9420    10.6130    13.8210 hc         1 N5G       0.034700
     71 HP1         -6.5740    15.9330     5.3600 hx         1 N5G      -0.072300
     72 H38         -4.4130    13.9630     5.9550 hp         1 N5G      -0.219400
@<TRIPOS>BOND
     1     1     2 1   
     2     1    12 1   
     3     1    39 1   
     4     2     3 1   
     5     2     4 1   
     6     2    40 1   
     7     3    41 1   
     8     3    42 1   
     9     4     5 1   
    10     4    43 1   
    11     5     6 1   
    12     5     7 1   
    13     5    44 1   
    14     6    45 1   
    15     7     8 1   
    16     7    12 1   
    17     7    46 1   
    18     8     9 1   
    19     8    33 1   
    20     8    36 1   
    21     9    10 1   
    22     9    13 1   
    23     9    47 1   
    24    10    11 1   
    25    10    48 1   
    26    10    49 1   
    27    11    12 1   
    28    11    50 1   
    29    12    51 1   
    30    13    14 1   
    31    13    52 1   
    32    13    53 1   
    33    14    18 1   
    34    14    54 1   
    35    15    16 1   
    36    15    20 1   
    37    15    21 1   
    38    15    55 1   
    39    16    17 1   
    40    16    56 1   
    41    16    57 1   
    42    17    18 1   
    43    17    58 1   
    44    17    59 1   
    45    18    19 1   
    46    18    60 1   
    47    19    20 1   
    48    19    61 1   
    49    19    62 1   
    50    20    63 1   
    51    20    64 1   
    52    21    22 2   
    53    21    23 1   
    54    23    24 1   
    55    23    65 1   
    56    24    25 1   
    57    24    30 1   
    58    24    66 1   
    59    25    26 1   
    60    25    67 1   
    61    25    68 1   
    62    26    27 1   
    63    26    69 1   
    64    26    70 1   
    65    27    28 1   
    66    27    29 1   
    67    30    31 1   
    68    30    32 1   
    69    33    34 1   
    70    33    35 1   
    71    33    71 1   
    72    35    37 1   
    73    35    38 1   
    74    35    72 1   
@<TRIPOS>SUBSTRUCTURE
     1 N5G         1 TEMP              0 ****  ****    0 ROOT
