@<TRIPOS>MOLECULE
N7Y
   46    48     1     0     0
SMALL
abcg2


@<TRIPOS>ATOM
      1 O3          -0.6090    -4.7100     1.2780 os         1 N7Y      -0.710800
      2 C4          -1.9770     2.7110     0.4570 cc         1 N7Y       0.514700
      3 C5          -2.0030     0.1530     0.5980 c5         1 N7Y       0.268300
      4 O4           0.9560    -6.7080     0.8560 o          1 N7Y      -0.962500
      5 C6          -2.0890    -0.6990    -0.6850 c5         1 N7Y       0.118300
      6 N1          -6.2920     2.6650    -0.4220 nb         1 N7Y      -0.365000
      7 C7          -0.7890    -1.4950    -0.6070 c5         1 N7Y       0.225300
      8 C8           0.1530    -0.4590     0.0060 c5         1 N7Y       0.099300
      9 N2          -4.8480     0.7990    -0.0830 nb         1 N7Y      -0.177000
     10 C9           0.7940     0.4850    -0.9930 c3         1 N7Y       0.226600
     11 O5          -0.2530    -6.4090     3.1030 o          1 N7Y      -0.962500
     12 O6          -1.5820    -7.0650     1.0140 o          1 N7Y      -0.962500
     13 N3          -2.8140     3.6930     0.2590 nd         1 N7Y      -0.614100
     14 O7          -0.2810    -4.5030    -1.2890 o          1 N7Y      -0.886500
     15 O8           1.6940     1.3090    -0.2970 os         1 N7Y      -0.574400
     16 N4          -2.5750     1.4820     0.3950 na         1 N7Y      -0.267300
     17 C           -5.3140     3.5610    -0.2310 ca         1 N7Y       0.402900
     18 O           -3.2160    -1.5090    -0.7650 oh         1 N7Y      -0.677000
     19 C1          -6.0120     1.3690    -0.3460 ca         1 N7Y       0.105900
     20 C2          -3.8870     1.7050     0.1190 ca         1 N7Y       0.068500
     21 C3          -4.0220     3.0810     0.0500 ca         1 N7Y      -0.074600
     22 O1          -0.9770    -2.5810     0.2540 os         1 N7Y      -0.556400
     23 O10          3.8200     5.3630    -0.9880 o          1 N7Y      -0.963833
     24 O11          5.6670     4.0150     0.1820 o          1 N7Y      -0.963833
     25 O12          3.7030     4.9290     1.5440 o          1 N7Y      -0.963833
     26 O13          2.2040     2.7060    -2.3800 o          1 N7Y      -0.908000
     27 O14          0.9440     3.7600    -0.3790 o          1 N7Y      -0.908000
     28 O15         -0.6630     0.2690     0.9360 os         1 N7Y      -0.417000
     29 O2           1.4380    -3.4480     0.3300 o          1 N7Y      -0.886500
     30 O9           3.3970     2.9840    -0.1040 os         1 N7Y      -0.705800
     31 P            0.0310    -3.9040     0.0530 p5         1 N7Y       1.463800
     32 P1          -0.3420    -6.3960     1.5840 p5         1 N7Y       1.362900
     33 P2           2.0120     2.8320    -0.8930 p5         1 N7Y       1.483800
     34 P3           4.2180     4.4810     0.1860 p5         1 N7Y       1.364900
     35 H7          -0.9140     2.8310     0.6080 h5         1 N7Y       0.181800
     36 H           -2.5670    -0.3170     1.4130 h2         1 N7Y       0.080700
     37 H1          -2.0150    -0.0200    -1.5480 h1         1 N7Y       0.011700
     38 H2          -0.4560    -1.8100    -1.6040 h1         1 N7Y       0.052700
     39 H3           0.9380    -0.9600     0.5750 h1         1 N7Y       0.154700
     40 H9           1.3150    -0.1120    -1.7520 h1         1 N7Y      -0.007300
     41 H10          0.0230     1.0610    -1.5210 h1         1 N7Y      -0.007300
     42 H5          -6.5290     5.1650    -0.5430 hn         1 N7Y       0.478500
     43 H4          -4.8860     5.5570    -0.1830 hn         1 N7Y       0.478500
     44 H8          -3.9920    -0.9340    -0.6440 ho         1 N7Y       0.479000
     45 H6          -6.8430     0.6960    -0.5280 h5         1 N7Y       0.004100
     46 N           -5.5980     4.8610    -0.3150 nv         1 N7Y      -1.104900
@<TRIPOS>BOND
     1     1    31 1   
     2     1    32 1   
     3     2    13 2   
     4     2    16 1   
     5     2    35 1   
     6     3     5 1   
     7     3    16 1   
     8     3    28 1   
     9     3    36 1   
    10     4    32 1   
    11     5     7 1   
    12     5    18 1   
    13     5    37 1   
    14     6    17 ar  
    15     6    19 ar  
    16     7     8 1   
    17     7    22 1   
    18     7    38 1   
    19     8    10 1   
    20     8    28 1   
    21     8    39 1   
    22     9    19 ar  
    23     9    20 ar  
    24    10    15 1   
    25    10    40 1   
    26    10    41 1   
    27    11    32 1   
    28    12    32 1   
    29    13    21 1   
    30    14    31 1   
    31    15    33 1   
    32    16    20 1   
    33    17    21 ar  
    34    17    46 1   
    35    18    44 1   
    36    19    45 1   
    37    20    21 ar  
    38    22    31 1   
    39    23    34 1   
    40    24    34 1   
    41    25    34 1   
    42    26    33 1   
    43    27    33 1   
    44    29    31 1   
    45    30    33 1   
    46    30    34 1   
    47    42    46 1   
    48    43    46 1   
@<TRIPOS>SUBSTRUCTURE
     1 N7Y         1 TEMP              0 ****  ****    0 ROOT
