@<TRIPOS>MOLECULE
NDO
   72    76     1     0     0
SMALL
abcg2


@<TRIPOS>ATOM
      1 PA         -87.9760   -67.9430    -4.9520 p5         1 NDO       1.485800
      2 O1A        -86.9710   -67.9540    -6.0550 o          1 NDO      -0.865500
      3 O2A        -87.5690   -68.1080    -3.5170 o          1 NDO      -0.865500
      4 O5B        -89.1010   -69.0730    -5.3410 os         1 NDO      -0.571400
      5 C5B        -90.0190   -69.5200    -4.3680 c3         1 NDO       0.240600
      6 C4B        -91.4340   -69.5360    -4.9260 c5         1 NDO       0.109300
      7 O4B        -92.2640   -70.1670    -3.9350 os         1 NDO      -0.482000
      8 C3B        -92.0610   -68.1570    -5.1890 c5         1 NDO       0.193300
      9 O3B        -91.8960   -67.7280    -6.4970 oh         1 NDO      -0.790000
     10 C2B        -93.5210   -68.3760    -4.7440 c5         1 NDO       0.178300
     11 O2B        -94.2640   -69.0420    -5.7180 os         1 NDO      -0.565400
     12 C1B        -93.3280   -69.3500    -3.5830 c5         1 NDO       0.274300
     13 N9A        -93.0160   -68.6730    -2.3100 na         1 NDO      -0.247300
     14 C8A        -91.9390   -68.8960    -1.4960 cc         1 NDO       0.432700
     15 N7A        -91.9670   -68.2210    -0.3830 nd         1 NDO      -0.621100
     16 C5A        -93.1400   -67.5230    -0.4470 ca         1 NDO      -0.077600
     17 C6A        -93.7820   -66.6340     0.4160 ca         1 NDO       0.353300
     18 O6A        -93.2160   -66.2920     1.5590 oh         1 NDO      -0.647300
     19 N1A        -94.9550   -66.1300     0.0780 nb         1 NDO      -0.345000
     20 C2A        -95.5020   -66.4910    -1.0870 ca         1 NDO       0.120900
     21 N3A        -95.0000   -67.3100    -1.9900 nb         1 NDO      -0.082000
     22 C4A        -93.8160   -67.8000    -1.6350 ca         1 NDO       0.094500
     23 O3         -88.9130   -66.5910    -5.0380 os         1 NDO      -0.738800
     24 PN         -88.5980   -65.2370    -5.9290 p5         1 NDO       1.472800
     25 O1N        -88.9050   -65.4900    -7.3700 o          1 NDO      -0.835500
     26 O2N        -87.3050   -64.6440    -5.4760 o          1 NDO      -0.835500
     27 O5D        -89.7850   -64.3010    -5.2690 os         1 NDO      -0.647400
     28 C5D        -91.0610   -64.1880    -5.8540 c3         1 NDO       0.220600
     29 C4D        -92.0550   -63.6760    -4.8360 c5         1 NDO       0.157300
     30 O4D        -92.3920   -64.7020    -3.8880 os         1 NDO      -0.371000
     31 C3D        -91.5850   -62.5010    -3.9830 c5         1 NDO       0.141300
     32 O3D        -91.7960   -61.3090    -4.6720 oh         1 NDO      -0.675000
     33 C2D        -92.4010   -62.6790    -2.6980 c5         1 NDO       0.075300
     34 O2D        -93.6860   -62.1790    -2.9070 oh         1 NDO      -0.669000
     35 C1D        -92.4520   -64.2160    -2.6070 c5         1 NDO       0.249300
     36 N1N        -91.3130   -64.7780    -1.7900 na         1 NDO       0.023300
     37 C2N        -91.3050   -64.5120    -0.4780 ca         1 NDO      -0.062000
     38 C3N        -90.3310   -65.0300     0.3440 ca         1 NDO      -0.185600
     39 C7N        -90.3910   -64.6680     1.7990 c          1 NDO       0.641700
     40 O7N        -90.8900   -63.6100     2.1420 o          1 NDO      -0.633100
     41 N7N        -89.8590   -65.5610     2.6380 nt         1 NDO      -0.590000
     42 C4N        -89.3340   -65.8190    -0.2240 ca         1 NDO      -0.011000
     43 C5N        -89.3620   -66.0810    -1.5810 ca         1 NDO      -0.093000
     44 C6N        -90.3770   -65.5540    -2.3470 ca         1 NDO       0.073700
     45 P2B        -95.2110   -68.0730    -6.7720 p5         1 NDO       1.280900
     46 O1X        -94.1740   -67.0380    -7.2830 o          1 NDO      -0.884500
     47 O2X        -95.6660   -69.0820    -7.8030 o          1 NDO      -0.884500
     48 O3X        -96.2880   -67.4530    -5.9030 o          1 NDO      -0.884500
     49 H51A       -89.7440   -70.5310    -4.0470 h1         1 NDO      -0.013300
     50 H52A       -89.9980   -68.8860    -3.4770 h1         1 NDO      -0.013300
     51 H4B        -91.4750   -70.1390    -5.8400 h1         1 NDO       0.099700
     52 H3B        -91.6150   -67.4410    -4.4810 h1         1 NDO      -0.020300
     53 HO3A       -92.8000   -67.4190    -6.8650 ho         1 NDO       0.608000
     54 H2B        -93.9970   -67.4440    -4.4210 h1         1 NDO       0.059700
     55 H1B        -94.2220   -69.9560    -3.4130 h2         1 NDO       0.097700
     56 H8A        -91.1570   -69.5870    -1.7610 h5         1 NDO       0.092800
     57 HO6A       -93.7860   -65.6640     2.0290 ho         1 NDO       0.466000
     58 H2A        -96.4690   -66.0560    -1.3080 h5         1 NDO       0.050100
     59 H51N       -91.0480   -63.4720    -6.6840 h1         1 NDO       0.081200
     60 H52N       -91.4240   -65.1390    -6.2590 h1         1 NDO       0.081200
     61 H4D        -92.9690   -63.4000    -5.3730 h1         1 NDO       0.099700
     62 H3D        -90.5280   -62.6360    -3.7230 h1         1 NDO       0.084700
     63 HO3N       -91.2800   -60.6120    -4.2550 ho         1 NDO       0.489000
     64 H2D        -91.9150   -62.2220    -1.8280 h1         1 NDO       0.032700
     65 HO2N       -94.1750   -62.2120    -2.0780 ho         1 NDO       0.492000
     66 H1D        -93.3550   -64.5630    -2.0980 h2         1 NDO       0.101700
     67 H2N        -92.1050   -63.8910    -0.0970 h4         1 NDO       0.158000
     68 H71N       -89.5940   -66.4890     2.3520 hn         1 NDO       0.317500
     69 H72N       -89.8780   -65.3830     3.6300 hn         1 NDO       0.317500
     70 H4N        -88.5330   -66.2250     0.3790 ha         1 NDO       0.133000
     71 H5N        -88.6170   -66.7040    -2.0620 ha         1 NDO       0.254000
     72 H6N        -90.4450   -65.7460    -3.4040 h4         1 NDO       0.270000
@<TRIPOS>BOND
     1     1     2 1   
     2     1     3 1   
     3     1     4 1   
     4     1    23 1   
     5     4     5 1   
     6     5     6 1   
     7     5    49 1   
     8     5    50 1   
     9     6     7 1   
    10     6     8 1   
    11     6    51 1   
    12     7    12 1   
    13     8     9 1   
    14     8    10 1   
    15     8    52 1   
    16     9    53 1   
    17    10    11 1   
    18    10    12 1   
    19    10    54 1   
    20    11    45 1   
    21    12    13 1   
    22    12    55 1   
    23    13    14 1   
    24    13    22 1   
    25    14    15 2   
    26    14    56 1   
    27    15    16 1   
    28    16    17 ar  
    29    16    22 ar  
    30    17    18 1   
    31    17    19 ar  
    32    18    57 1   
    33    19    20 ar  
    34    20    21 ar  
    35    20    58 1   
    36    21    22 ar  
    37    23    24 1   
    38    24    25 1   
    39    24    26 1   
    40    24    27 1   
    41    27    28 1   
    42    28    29 1   
    43    28    59 1   
    44    28    60 1   
    45    29    30 1   
    46    29    31 1   
    47    29    61 1   
    48    30    35 1   
    49    31    32 1   
    50    31    33 1   
    51    31    62 1   
    52    32    63 1   
    53    33    34 1   
    54    33    35 1   
    55    33    64 1   
    56    34    65 1   
    57    35    36 1   
    58    35    66 1   
    59    36    37 1   
    60    36    44 2   
    61    37    38 ar  
    62    37    67 1   
    63    38    39 1   
    64    38    42 ar  
    65    39    40 2   
    66    39    41 1   
    67    41    68 1   
    68    41    69 1   
    69    42    43 ar  
    70    42    70 1   
    71    43    44 ar  
    72    43    71 1   
    73    44    72 1   
    74    45    46 1   
    75    45    47 1   
    76    45    48 1   
@<TRIPOS>SUBSTRUCTURE
     1 NDO         1 TEMP              0 ****  ****    0 ROOT
