@<TRIPOS>MOLECULE
NDQ
   43    44     1     0     0
SMALL
abcg2


@<TRIPOS>ATOM
      1 C4          26.0270    11.6750     1.3970 cc         1 NDQ      -0.134300
      2 C5          26.3010    11.3720     0.0990 cd         1 NDQ      -0.253300
      3 C2          24.5990    13.0750     0.3340 cc         1 NDQ      -0.376300
      4 C9          22.6800    10.2460     5.0500 ca         1 NDQ       0.397300
      5 C1          22.6250    11.5090     3.1690 ca         1 NDQ       0.426900
      6 C4A         26.6640    11.0860     2.6040 c3         1 NDQ      -0.022800
      7 C8          23.8200    12.1530     3.5800 ca         1 NDQ      -0.323300
      8 C6          24.3020    11.7640     4.8080 ca         1 NDQ       0.183900
      9 N1          23.7500    10.8240     5.5690 nb         1 NDQ      -0.299000
     10 N3          25.0490    12.6520     1.4960 na         1 NDQ       0.017300
     11 N2          22.0870    10.5430     3.9070 nb         1 NDQ      -0.290000
     12 S1          25.3360    12.3310    -0.9660 ss         1 NDQ       0.878000
     13 C5A         27.2530    10.3570    -0.4370 c3         1 NDQ      -0.027100
     14 C5B         28.0870    10.8990    -1.5880 c3         1 NDQ       0.231600
     15 O21         26.2990    15.7570    -2.7640 o          1 NDQ      -0.904500
     16 O22         28.2380    15.5720    -4.4450 o          1 NDQ      -0.904500
     17 O23         28.7260    16.0040    -1.9570 o          1 NDQ      -0.904500
     18 O5G         27.1940    11.3410    -2.5780 os         1 NDQ      -0.612400
     19 P1          27.6640    12.5210    -3.6780 p5         1 NDQ       1.434800
     20 H1          23.8570    13.8550     0.2420 h5         1 NDQ       0.181000
     21 H2          25.3730    13.5930     3.3320 h1         1 NDQ       0.074200
     22 H3          23.8910    14.0330     2.5110 h1         1 NDQ       0.074200
     23 H4          26.9000    11.8460     3.3470 hc         1 NDQ       0.048033
     24 H5          26.0210    10.3410     3.0720 hc         1 NDQ       0.048033
     25 H6          27.5960    10.5970     2.3340 hc         1 NDQ       0.048033
     26 H7          25.1970    12.2360     5.2020 h4         1 NDQ       0.022100
     27 H8          22.0020     8.0650     7.3270 h1         1 NDQ       0.046033
     28 H9          23.6600     8.5050     6.8670 h1         1 NDQ       0.046033
     29 H10         22.6250     9.6890     7.6880 h1         1 NDQ       0.046033
     30 H11         21.1030    11.3870     1.8560 hn         1 NDQ       0.493000
     31 H12         22.1310    12.7050     1.5800 hn         1 NDQ       0.493000
     32 H13         26.6940     9.4780    -0.7690 hc         1 NDQ       0.034200
     33 H14         27.9150    10.0190     0.3610 hc         1 NDQ       0.034200
     34 H15         28.7400    10.1040    -1.9610 h1         1 NDQ       0.039700
     35 H16         28.7280    11.7070    -1.2190 h1         1 NDQ       0.039700
     36 C35         24.5310    13.1880     2.7710 c3         1 NDQ       0.134900
     37 N4          22.0060    11.8060     2.0130 nv         1 NDQ      -1.042900
     38 O11         27.8830    13.7350    -2.6600 os         1 NDQ      -0.740800
     39 C7          22.6370     8.8700     6.9680 c3         1 NDQ       0.167900
     40 O12         26.4470    12.6770    -4.5400 o          1 NDQ      -0.851000
     41 O13         28.9750    12.0810    -4.2680 o          1 NDQ      -0.851000
     42 O2          22.0920     9.2630     5.7140 os         1 NDQ      -0.440300
     43 P2          27.7690    15.4470    -3.0010 p5         1 NDQ       1.337900
@<TRIPOS>BOND
     1     1     2 2   
     2     1     6 1   
     3     1    10 1   
     4     2    12 1   
     5     2    13 1   
     6     3    10 2   
     7     3    12 1   
     8     3    20 1   
     9     4     9 ar  
    10     4    11 ar  
    11     4    42 1   
    12     5     7 ar  
    13     5    11 ar  
    14     5    37 1   
    15     6    23 1   
    16     6    24 1   
    17     6    25 1   
    18     7     8 ar  
    19     7    36 1   
    20     8     9 ar  
    21     8    26 1   
    22    10    36 1   
    23    13    14 1   
    24    13    32 1   
    25    13    33 1   
    26    14    18 1   
    27    14    34 1   
    28    14    35 1   
    29    15    43 1   
    30    16    43 1   
    31    17    43 1   
    32    18    19 1   
    33    19    38 1   
    34    19    40 1   
    35    19    41 1   
    36    21    36 1   
    37    22    36 1   
    38    27    39 1   
    39    28    39 1   
    40    29    39 1   
    41    30    37 1   
    42    31    37 1   
    43    38    43 1   
    44    39    42 1   
@<TRIPOS>SUBSTRUCTURE
     1 NDQ         1 TEMP              0 ****  ****    0 ROOT
