@<TRIPOS>MOLECULE
NKO
   64    63     1     0     0
SMALL
abcg2


@<TRIPOS>ATOM
      1 OAA         11.0020     0.8130    -1.7760 o          1 NKO      -0.924167
      2 OAB         10.2280    -1.5890    -1.2820 o          1 NKO      -0.924167
      3 PAC         10.2970    -0.1380    -0.8190 p5         1 NKO       1.270900
      4 OAD         10.6690     0.0310     0.6510 o          1 NKO      -0.924167
      5 OAE          3.0040    -1.3260     1.2770 o          1 NKO      -0.518000
      6 OAF          8.6910     0.4350    -0.9340 os         1 NKO      -0.566400
      7 CAG          7.7290    -0.2290    -0.1810 c3         1 NKO       0.227600
      8 CAH          6.3850     0.4740    -0.3210 c3         1 NKO       0.142300
      9 CAI          5.3190    -0.3300     0.4020 c3         1 NKO       0.118600
     10 OAJ          4.0560     0.2990     0.1700 os         1 NKO      -0.429100
     11 CAK          2.9720    -0.2890     0.6610 c          1 NKO       0.587100
     12 CAL          1.7260     0.5060     0.3760 c3         1 NKO      -0.144400
     13 CAM          0.4480    -0.3030     0.5290 c3         1 NKO      -0.067400
     14 CAN         -0.8010     0.5330     0.2810 c3         1 NKO      -0.075400
     15 CAO         -2.0810    -0.2830     0.3980 c3         1 NKO      -0.075400
     16 CAP         -3.3480     0.5330     0.1750 c3         1 NKO      -0.074400
     17 CAQ         -4.6180    -0.3020     0.2740 c3         1 NKO      -0.075400
     18 CAR         -5.8940     0.5010     0.0610 c3         1 NKO      -0.073400
     19 CAS         -7.1550    -0.3510     0.1440 c3         1 NKO      -0.075400
     20 CAT         -8.4400     0.4410    -0.0610 c3         1 NKO      -0.074400
     21 CAU         -9.6920    -0.4240     0.0080 c3         1 NKO      -0.074400
     22 CAV        -10.9820     0.3610    -0.1930 c3         1 NKO      -0.074400
     23 CAW        -12.2300    -0.5110    -0.1330 c3         1 NKO      -0.074400
     24 CAX        -13.5230     0.2690    -0.3330 c3         1 NKO      -0.075400
     25 CAY        -14.7700    -0.6050    -0.2790 c3         1 NKO      -0.075400
     26 CAZ        -16.0550     0.1840    -0.4890 c3         1 NKO      -0.088100
     27 OBA          6.4200     1.8120     0.1210 oh         1 NKO      -0.655000
     28 HAG          7.6070    -1.2740    -0.4990 h1         1 NKO      -0.002300
     29 HAGA         7.9990    -0.2630     0.8880 h1         1 NKO      -0.002300
     30 HAH          6.1230     0.5160    -1.3830 h1         1 NKO       0.073700
     31 HAI          5.3030    -1.3550     0.0260 h1         1 NKO       0.045700
     32 HAIA         5.5240    -0.3710     1.4770 h1         1 NKO       0.045700
     33 HAL          1.7200     1.3570     1.0680 hc         1 NKO       0.066700
     34 HALA         1.7950     0.9410    -0.6250 hc         1 NKO       0.066700
     35 HAM          0.4630    -1.1460    -0.1680 hc         1 NKO       0.050200
     36 HAMA         0.4010    -0.7330     1.5330 hc         1 NKO       0.050200
     37 HAN         -0.8310     1.3650     0.9940 hc         1 NKO       0.035200
     38 HANA        -0.7500     0.9880    -0.7140 hc         1 NKO       0.035200
     39 HAO         -2.0510    -1.1070    -0.3250 hc         1 NKO       0.037200
     40 HAOA        -2.1220    -0.7520     1.3880 hc         1 NKO       0.037200
     41 HAP         -3.3890     1.3480     0.9070 hc         1 NKO       0.035700
     42 HAPA        -3.3050     1.0130    -0.8090 hc         1 NKO       0.035700
     43 HAQ         -4.5740    -1.1130    -0.4630 hc         1 NKO       0.036200
     44 HAQA        -4.6550    -0.7890     1.2550 hc         1 NKO       0.036200
     45 HAR         -5.9470     1.3040     0.8050 hc         1 NKO       0.036200
     46 HARA        -5.8560     0.9960    -0.9160 hc         1 NKO       0.036200
     47 HAS         -7.1000    -1.1510    -0.6030 hc         1 NKO       0.036200
     48 HASA        -7.1890    -0.8510     1.1190 hc         1 NKO       0.036200
     49 HAT         -8.5020     1.2340     0.6920 hc         1 NKO       0.036700
     50 HATA        -8.4030     0.9480    -1.0320 hc         1 NKO       0.036700
     51 HAU         -9.6280    -1.2140    -0.7470 hc         1 NKO       0.036700
     52 HAUA        -9.7260    -0.9340     0.9780 hc         1 NKO       0.036700
     53 HAV        -11.0520     1.1470     0.5670 hc         1 NKO       0.036700
     54 HAVA       -10.9480     0.8770    -1.1590 hc         1 NKO       0.036700
     55 HAW        -12.1600    -1.2960    -0.8940 hc         1 NKO       0.036700
     56 HAWA       -12.2640    -1.0290     0.8330 hc         1 NKO       0.036700
     57 HAX        -13.5980     1.0520     0.4300 hc         1 NKO       0.036700
     58 HAXA       -13.4890     0.7900    -1.2970 hc         1 NKO       0.036700
     59 HAY        -14.6940    -1.3890    -1.0390 hc         1 NKO       0.035700
     60 HAYA       -14.8080    -1.1220     0.6850 hc         1 NKO       0.035700
     61 HAZ        -16.0560     0.6820    -1.4610 hc         1 NKO       0.029700
     62 HAZA       -16.9350    -0.4590    -0.4480 hc         1 NKO       0.029700
     63 HAZB       -16.1740     0.9560     0.2750 hc         1 NKO       0.029700
     64 HOBA         6.8180     1.8320     0.9980 ho         1 NKO       0.433000
@<TRIPOS>BOND
     1     1     3 1   
     2     2     3 1   
     3     3     4 1   
     4     3     6 1   
     5     5    11 2   
     6     6     7 1   
     7     7     8 1   
     8     7    28 1   
     9     7    29 1   
    10     8     9 1   
    11     8    27 1   
    12     8    30 1   
    13     9    10 1   
    14     9    31 1   
    15     9    32 1   
    16    10    11 1   
    17    11    12 1   
    18    12    13 1   
    19    12    33 1   
    20    12    34 1   
    21    13    14 1   
    22    13    35 1   
    23    13    36 1   
    24    14    15 1   
    25    14    37 1   
    26    14    38 1   
    27    15    16 1   
    28    15    39 1   
    29    15    40 1   
    30    16    17 1   
    31    16    41 1   
    32    16    42 1   
    33    17    18 1   
    34    17    43 1   
    35    17    44 1   
    36    18    19 1   
    37    18    45 1   
    38    18    46 1   
    39    19    20 1   
    40    19    47 1   
    41    19    48 1   
    42    20    21 1   
    43    20    49 1   
    44    20    50 1   
    45    21    22 1   
    46    21    51 1   
    47    21    52 1   
    48    22    23 1   
    49    22    53 1   
    50    22    54 1   
    51    23    24 1   
    52    23    55 1   
    53    23    56 1   
    54    24    25 1   
    55    24    57 1   
    56    24    58 1   
    57    25    26 1   
    58    25    59 1   
    59    25    60 1   
    60    26    61 1   
    61    26    62 1   
    62    26    63 1   
    63    27    64 1   
@<TRIPOS>SUBSTRUCTURE
     1 NKO         1 TEMP              0 ****  ****    0 ROOT
