@<TRIPOS>MOLECULE
NO7
   44    46     1     0     0
SMALL
abcg2


@<TRIPOS>ATOM
      1 C10          4.0570     0.7200     0.0060 ca         1 NO7      -0.072600
      2 C17         -2.1300    -2.1010     0.1120 c3         1 NO7       0.246600
      3 C01          8.8060     3.3890    -1.6360 c1         1 NO7      -0.262000
      4 C02          8.0850     3.0790    -0.7280 c1         1 NO7      -0.139100
      5 C03          7.2040     2.7200     0.3800 c3         1 NO7       0.308900
      6 C05          5.3110     1.1540     0.4700 ca         1 NO7       0.430900
      7 C07          5.2100    -0.5260     2.0380 ca         1 NO7       0.146900
      8 C09          3.5010    -0.3630     0.6690 ca         1 NO7       0.110500
      9 C12          2.2070     0.3540    -0.9410 cc         1 NO7       0.490700
     10 C14          1.3750    -1.6440     0.3450 c5         1 NO7       0.306300
     11 C16         -0.7650    -1.9700    -0.5190 c5         1 NO7       0.154300
     12 C27         -0.0070    -3.2900    -0.6140 c5         1 NO7       0.085300
     13 C29          1.4500    -2.8170    -0.6350 c5         1 NO7       0.075300
     14 N04          5.9550     2.1800    -0.1040 nu         1 NO7      -0.929100
     15 N06          5.8590     0.5040     1.4990 nb         1 NO7      -0.325000
     16 N08          4.0380    -1.0260     1.6920 nb         1 NO7      -0.199000
     17 N11          3.2300     1.1570    -0.9950 nd         1 NO7      -0.603100
     18 N13          2.3060    -0.5840     0.0490 na         1 NO7      -0.254300
     19 O15          0.0690    -1.1380     0.2840 os         1 NO7      -0.398000
     20 O20         -4.8000    -1.2950    -1.3130 o          1 NO7      -0.885000
     21 O21         -4.9560    -1.5240     1.2590 o          1 NO7      -0.885000
     22 O22         -4.4980     0.7900     0.1680 os         1 NO7      -0.701800
     23 O24         -5.7000     2.9650    -0.1860 o          1 NO7      -0.950167
     24 O25         -7.0710     0.8140     0.1100 o          1 NO7      -0.950167
     25 O26         -5.8160     1.8330     2.1090 o          1 NO7      -0.950167
     26 O28         -0.3860    -3.9930    -1.7640 oh         1 NO7      -0.689000
     27 O30          1.8130    -2.3530    -1.9040 oh         1 NO7      -0.717000
     28 P19         -4.4150    -0.8040     0.0560 p5         1 NO7       1.448800
     29 P23         -5.9200     1.6800     0.6010 p5         1 NO7       1.347900
     30 H1          -2.6970    -2.8250    -0.4860 h1         1 NO7       0.009200
     31 H2          -2.0260    -2.5230     1.1200 h1         1 NO7       0.009200
     32 H3           9.4500     3.6550    -2.4430 ha         1 NO7       0.244000
     33 H4           7.6880     1.9720     1.0060 h1         1 NO7       0.069200
     34 H5           7.0380     3.5980     1.0120 h1         1 NO7       0.069200
     35 H6           5.7140    -1.0120     2.8670 h5         1 NO7       0.025100
     36 H7           1.3450     0.4100    -1.5860 h5         1 NO7       0.102800
     37 H8           1.6100    -1.9900     1.3570 h2         1 NO7       0.085700
     38 H9          -0.8750    -1.5300    -1.5190 h1         1 NO7       0.085700
     39 H10         -0.1750    -3.8810     0.2960 h1         1 NO7       0.050700
     40 H11          2.1440    -3.5830    -0.2690 h1         1 NO7       0.032700
     41 H12          5.4620     2.7030    -0.8110 hn         1 NO7       0.518000
     42 H16         -0.1550    -4.9200    -1.6520 ho         1 NO7       0.484000
     43 H17          1.4020    -2.9350    -2.5550 ho         1 NO7       0.517000
     44 O18         -2.7480    -0.8410     0.1500 os         1 NO7      -0.544400
@<TRIPOS>BOND
     1     1     6 ar  
     2     1     8 ar  
     3     1    17 1   
     4     2    11 1   
     5     2    30 1   
     6     2    31 1   
     7     2    44 1   
     8     3     4 3   
     9     3    32 1   
    10     4     5 1   
    11     5    14 1   
    12     5    33 1   
    13     5    34 1   
    14     6    14 1   
    15     6    15 ar  
    16     7    15 ar  
    17     7    16 ar  
    18     7    35 1   
    19     8    16 ar  
    20     8    18 1   
    21     9    17 2   
    22     9    18 1   
    23     9    36 1   
    24    10    13 1   
    25    10    18 1   
    26    10    19 1   
    27    10    37 1   
    28    11    12 1   
    29    11    19 1   
    30    11    38 1   
    31    12    13 1   
    32    12    26 1   
    33    12    39 1   
    34    13    27 1   
    35    13    40 1   
    36    14    41 1   
    37    20    28 1   
    38    21    28 1   
    39    22    28 1   
    40    22    29 1   
    41    23    29 1   
    42    24    29 1   
    43    25    29 1   
    44    26    42 1   
    45    27    43 1   
    46    28    44 1   
@<TRIPOS>SUBSTRUCTURE
     1 NO7         1 TEMP              0 ****  ****    0 ROOT
