@<TRIPOS>MOLECULE
NPW
   77    81     1     0     0
SMALL
abcg2


@<TRIPOS>ATOM
      1 P            5.2020    -0.5750     1.7830 p5         1 NPW       1.261900
      2 O1           5.7530     0.7770     1.3400 o          1 NPW      -0.918167
      3 O2           4.5200    -1.3590     0.6710 o          1 NPW      -0.918167
      4 O3           6.1150    -1.3730     2.7020 o          1 NPW      -0.918167
      5 PA          -0.2230     2.9750    -0.9830 p5         1 NPW       1.454800
      6 PB          -2.6200     3.3350    -2.5540 p5         1 NPW       1.467800
      7 C1A          1.5980    -0.4150     2.2770 c5         1 NPW       0.259300
      8 C1B         -4.5980    -1.8520    -2.3490 c5         1 NPW       0.453500
      9 N1C         -3.8390    -1.9900    -1.1330 nh         1 NPW      -0.690400
     10 N1D          2.1210    -5.1790     0.5170 nb         1 NPW      -0.345000
     11 C2A          2.8460     0.4720     2.3350 c5         1 NPW       0.247300
     12 O2A          3.9360    -0.1620     2.8810 os         1 NPW      -0.540400
     13 C2B         -6.1150    -1.7320    -2.1610 c5         1 NPW       0.089300
     14 O2B         -6.7260    -2.3320    -3.2720 oh         1 NPW      -0.731000
     15 C2C         -4.0890    -1.1880    -0.0580 c2         1 NPW       0.076000
     16 C2D          2.2240    -4.6710     1.7440 ca         1 NPW       0.124900
     17 C3A          2.3140     1.6570     3.1400 c5         1 NPW       0.091300
     18 O3A          2.2880     1.2940     4.4970 oh         1 NPW      -0.687000
     19 C3B         -6.3600    -0.2080    -2.1760 c5         1 NPW       0.077300
     20 O3B         -7.5590     0.1410    -2.8220 oh         1 NPW      -0.722000
     21 C3C         -3.2610    -0.9950     0.9850 ce         1 NPW      -0.275400
     22 N3D          2.0740    -3.4170     2.1290 nb         1 NPW      -0.162000
     23 C4B         -5.1550     0.3410    -2.9570 c5         1 NPW       0.161300
     24 O4B         -4.2410    -0.7260    -3.1210 os         1 NPW      -0.404000
     25 C4C         -1.9350    -1.6920     1.0110 c6         1 NPW      -0.023200
     26 C4D          1.7940    -2.6140     1.1070 ca         1 NPW       0.167500
     27 O4D          0.5010     0.4590     2.2460 os         1 NPW      -0.488000
     28 C4E          0.9120     1.7940     2.5440 c5         1 NPW       0.126300
     29 C5A          1.6450    -2.9980    -0.2160 ca         1 NPW      -0.049600
     30 C5B         -4.5210     1.5210    -2.2460 c3         1 NPW       0.229600
     31 O5B         -3.4690     2.0190    -3.0390 os         1 NPW      -0.578400
     32 C5C         -2.0180    -2.9430     0.1490 c6         1 NPW      -0.120400
     33 C5E          0.9250     2.6690     1.3020 c3         1 NPW       0.192600
     34 O5E         -0.2980     2.5610     0.6120 os         1 NPW      -0.583400
     35 C6C         -2.5370    -2.6090    -1.2410 c6         1 NPW       0.466500
     36 O6C         -1.6770    -1.7440    -1.9370 oh         1 NPW      -0.652000
     37 C6D          1.8170    -4.3610    -0.4970 ca         1 NPW       0.398900
     38 N6D          1.6570    -4.8740    -1.7260 nv         1 NPW      -1.095900
     39 N7A          1.3110    -1.9200    -0.9960 nc         1 NPW      -0.632100
     40 C7C         -3.6710    -0.0290     2.0130 c          1 NPW       0.640300
     41 N7C         -2.6960     0.3480     2.8720 nt         1 NPW      -0.584000
     42 O7C         -4.8170     0.4130     2.1070 o          1 NPW      -0.702100
     43 C8A          1.2770    -0.9140    -0.1630 cd         1 NPW       0.500700
     44 N9A          1.5390    -1.2770     1.1230 na         1 NPW      -0.245300
     45 OA1          0.6550     1.9930    -1.7000 o          1 NPW      -0.849500
     46 OA2          0.0620     4.4430    -1.0880 o          1 NPW      -0.849500
     47 OA3         -1.8020     2.6800    -1.2830 os         1 NPW      -0.705800
     48 OB1         -1.6850     3.6340    -3.6800 o          1 NPW      -0.852500
     49 OB2         -3.5590     4.3650    -2.0060 o          1 NPW      -0.852500
     50 H1A          1.5600    -1.0740     3.1500 h2         1 NPW       0.083700
     51 H1B         -4.3750    -2.7410    -2.9430 h2         1 NPW       0.079700
     52 H2A          3.0480     0.8430     1.3200 h1         1 NPW       0.074700
     53 H2B         -6.4540    -2.1960    -1.2260 h1         1 NPW       0.046700
     54 HO2B        -7.4640    -1.7640    -3.5320 ho         1 NPW       0.507000
     55 H2C         -5.0490    -0.6930    -0.0440 h4         1 NPW       0.180000
     56 H2D          2.4610    -5.3870     2.5240 h5         1 NPW       0.001100
     57 H3A          2.9150     2.5620     2.9760 h1         1 NPW       0.054700
     58 HO3A         1.9120     2.0250     4.9990 ho         1 NPW       0.442000
     59 H3B         -6.3700     0.1780    -1.1510 h1         1 NPW       0.068700
     60 HO3B        -8.2770     0.1040    -2.1820 ho         1 NPW       0.485000
     61 H4B         -5.4860     0.6640    -3.9510 h1         1 NPW       0.068700
     62 H4C         -1.1550    -1.0250     0.6390 hc         1 NPW       0.076200
     63 H4CA        -1.6490    -1.9730     2.0280 hc         1 NPW       0.076200
     64 H4E          0.2000     2.2070     3.2660 h1         1 NPW       0.024700
     65 H5B         -5.2950     2.2810    -2.0920 h1         1 NPW       0.025200
     66 H5BA        -4.1540     1.2140    -1.2590 h1         1 NPW       0.025200
     67 H5C         -1.0420    -3.4260     0.0660 hc         1 NPW       0.043200
     68 H5CA        -2.6880    -3.6740     0.6080 hc         1 NPW       0.043200
     69 H5E          1.1110     3.7010     1.6250 h1         1 NPW       0.029200
     70 H5EA         1.7660     2.3860     0.6570 h1         1 NPW       0.029200
     71 H6C         -2.6780    -3.5420    -1.8040 h2         1 NPW       0.007700
     72 HO6C        -0.7550    -1.9410    -1.7160 ho         1 NPW       0.496000
     73 HN6D         1.9260    -5.8270    -1.8990 hn         1 NPW       0.471500
     74 HN6A         1.5840    -4.2640    -2.5210 hn         1 NPW       0.471500
     75 HN7C        -1.7230     0.1950     2.6560 hn         1 NPW       0.317500
     76 HN7A        -2.8910     1.1010     3.5120 hn         1 NPW       0.317500
     77 H8A          1.0150     0.0990    -0.4450 h5         1 NPW       0.138800
@<TRIPOS>BOND
     1     1     2 1   
     2     1     3 1   
     3     1     4 1   
     4     1    12 1   
     5     5    34 1   
     6     5    45 1   
     7     5    46 1   
     8     5    47 1   
     9     6    31 1   
    10     6    47 1   
    11     6    48 1   
    12     6    49 1   
    13     7    11 1   
    14     7    27 1   
    15     7    44 1   
    16     7    50 1   
    17     8     9 1   
    18     8    13 1   
    19     8    24 1   
    20     8    51 1   
    21     9    15 1   
    22     9    35 1   
    23    10    16 ar  
    24    10    37 ar  
    25    11    12 1   
    26    11    17 1   
    27    11    52 1   
    28    13    14 1   
    29    13    19 1   
    30    13    53 1   
    31    14    54 1   
    32    15    21 2   
    33    15    55 1   
    34    16    22 ar  
    35    16    56 1   
    36    17    18 1   
    37    17    28 1   
    38    17    57 1   
    39    18    58 1   
    40    19    20 1   
    41    19    23 1   
    42    19    59 1   
    43    20    60 1   
    44    21    25 1   
    45    21    40 1   
    46    22    26 ar  
    47    23    24 1   
    48    23    30 1   
    49    23    61 1   
    50    25    32 1   
    51    25    62 1   
    52    25    63 1   
    53    26    29 ar  
    54    26    44 1   
    55    27    28 1   
    56    28    33 1   
    57    28    64 1   
    58    29    37 ar  
    59    29    39 1   
    60    30    31 1   
    61    30    65 1   
    62    30    66 1   
    63    32    35 1   
    64    32    67 1   
    65    32    68 1   
    66    33    34 1   
    67    33    69 1   
    68    33    70 1   
    69    35    36 1   
    70    35    71 1   
    71    36    72 1   
    72    37    38 1   
    73    38    73 1   
    74    38    74 1   
    75    39    43 2   
    76    40    41 1   
    77    40    42 2   
    78    41    75 1   
    79    41    76 1   
    80    43    44 1   
    81    43    77 1   
@<TRIPOS>SUBSTRUCTURE
     1 NPW         1 TEMP              0 ****  ****    0 ROOT
