@<TRIPOS>MOLECULE
NRD
   29    28     1     0     0
SMALL
abcg2


@<TRIPOS>ATOM
      1 OAK        -43.5550    11.5270     1.4070 o          1 NRD      -0.966000
      2 PAI        -44.1660    12.1890     0.1460 p5         1 NRD       1.354500
      3 OAL        -44.3700    13.6950     0.3050 o          1 NRD      -0.966000
      4 OAJ        -45.4560    11.4890    -0.2980 o          1 NRD      -0.966000
      5 CAG        -42.8040    11.8120    -1.1480 c3         1 NRD      -0.450000
      6 PAM        -41.4880    13.1470    -1.4410 p5         1 NRD       1.354500
      7 OAO        -42.1580    14.2910    -2.2210 o          1 NRD      -0.966000
      8 OAP        -40.4030    12.4530    -2.2850 o          1 NRD      -0.966000
      9 OAN        -40.9380    13.5880    -0.0740 o          1 NRD      -0.966000
     10 OAH        -42.0980    10.6540    -0.5930 oh         1 NRD      -0.755000
     11 CAF        -43.3960    11.4160    -2.5160 c3         1 NRD       0.018600
     12 CAE        -43.9770    10.0070    -2.6200 c3         1 NRD      -0.074400
     13 CAC        -44.7280     9.7770    -3.9290 c3         1 NRD      -0.068400
     14 CAB        -45.2860     8.3620    -4.0590 c3         1 NRD      -0.078400
     15 CAA        -46.0790     8.1420    -5.3400 c3         1 NRD       0.138800
     16 NAD        -46.6000     6.7680    -5.4160 n8         1 NRD      -1.007200
     17 H5         -42.3730    10.6840     0.3450 ho         1 NRD       0.444000
     18 H6         -42.6230    11.5220    -3.2820 hc         1 NRD      -0.002300
     19 H7         -44.1730    12.1420    -2.7660 hc         1 NRD      -0.002300
     20 H8         -44.6520     9.8380    -1.7830 hc         1 NRD       0.045700
     21 H9         -43.1700     9.2760    -2.5370 hc         1 NRD       0.045700
     22 H10        -44.0670     9.9860    -4.7770 hc         1 NRD       0.011200
     23 H11        -45.5520    10.4950    -4.0020 hc         1 NRD       0.011200
     24 H12        -45.9280     8.1420    -3.2020 hc         1 NRD       0.033200
     25 H13        -44.4620     7.6420    -4.0220 hc         1 NRD       0.033200
     26 H14        -45.4480     8.4000    -6.1990 h1         1 NRD       0.015200
     27 H15        -46.9320     8.8240    -5.3600 h1         1 NRD       0.015200
     28 H16        -47.1320     6.6470    -6.2700 hn         1 NRD       0.356500
     29 H17        -45.8250     6.1160    -5.4760 hn         1 NRD       0.356500
@<TRIPOS>BOND
     1     1     2 1   
     2     2     3 1   
     3     2     4 1   
     4     2     5 1   
     5     5     6 1   
     6     5    10 1   
     7     5    11 1   
     8     6     7 1   
     9     6     8 1   
    10     6     9 1   
    11    10    17 1   
    12    11    12 1   
    13    11    18 1   
    14    11    19 1   
    15    12    13 1   
    16    12    20 1   
    17    12    21 1   
    18    13    14 1   
    19    13    22 1   
    20    13    23 1   
    21    14    15 1   
    22    14    24 1   
    23    14    25 1   
    24    15    16 1   
    25    15    26 1   
    26    15    27 1   
    27    16    28 1   
    28    16    29 1   
@<TRIPOS>SUBSTRUCTURE
     1 NRD         1 TEMP              0 ****  ****    0 ROOT
