@<TRIPOS>MOLECULE
NSY
  134   139     1     0     0
SMALL
abcg2


@<TRIPOS>ATOM
      1 C1          14.3850    20.5510    42.1080 c3         1 NSY      -0.116100
      2 C2          13.8780    21.5290    43.1600 c          1 NSY       0.601100
      3 O3          14.6190    22.2630    43.7910 o          1 NSY      -0.597100
      4 C4          12.4370    21.7900    38.4580 cp         1 NSY      -0.018000
      5 C5          12.1900    20.5310    39.0010 ca         1 NSY      -0.099500
      6 C6          12.8500    20.1080    40.1470 ca         1 NSY      -0.107500
      7 C7          13.7830    20.9240    40.7770 ca         1 NSY      -0.102300
      8 C8          14.0690    22.1630    40.2050 ca         1 NSY      -0.107500
      9 C9          13.4030    22.5920    39.0700 ca         1 NSY      -0.099500
     10 C10         10.1890    23.2010    35.1060 ca         1 NSY      -0.103000
     11 C11         11.1710    23.5780    37.2690 ca         1 NSY      -0.096000
     12 C12         11.6750    22.2760    37.2910 cp         1 NSY      -0.050000
     13 C13         10.4330    24.0360    36.1880 ca         1 NSY      -0.106000
     14 C14         11.4190    21.4450    36.2000 ca         1 NSY      -0.096000
     15 C15         10.6850    21.9040    35.1150 ca         1 NSY      -0.106000
     16 N16         12.5340    21.5450    43.2920 ns         1 NSY      -0.489900
     17 C17         11.8240    22.6870    43.8210 c3         1 NSY       0.032700
     18 C18         10.3850    22.2470    44.0770 c          1 NSY       0.595100
     19 O19          9.8470    21.4260    43.3520 o          1 NSY      -0.593100
     20 C20         11.8320    23.8320    42.7890 c3         1 NSY      -0.109400
     21 C22          9.1280    28.1390    38.2890 c3         1 NSY      -0.112100
     22 C23          9.3310    27.8180    36.8360 ca         1 NSY      -0.073300
     23 C24         10.5970    27.9010    36.2640 ca         1 NSY      -0.097500
     24 C25          8.2750    27.3870    36.0390 ca         1 NSY      -0.097500
     25 C26         10.8030    27.5680    34.9350 ca         1 NSY      -0.102500
     26 C27          8.4790    27.0540    34.7090 ca         1 NSY      -0.102500
     27 C28          9.7470    27.1360    34.1310 cp         1 NSY      -0.034000
     28 N29          9.7610    22.8710    45.0900 ns         1 NSY      -0.507900
     29 C30          8.3800    22.6140    45.4610 c3         1 NSY       0.042700
     30 C31          7.3670    22.8450    44.3180 c3         1 NSY      -0.082400
     31 C32          7.5510    24.1340    43.5300 c3         1 NSY      -0.109400
     32 C33          6.3940    24.3750    42.5610 c3         1 NSY       0.242800
     33 N34          6.5730    25.5340    41.7220 nu         1 NSY      -0.944400
     34 C35          6.1030    26.7920    41.9470 c2         1 NSY       0.818100
     35 N36          5.5200    26.9950    43.1810 nv         1 NSY      -1.069200
     36 N37          6.1750    27.6670    41.0050 n2         1 NSY      -0.929100
     37 C38          7.9600    23.4680    46.6510 c          1 NSY       0.584100
     38 O39          7.1430    23.0410    47.4490 o          1 NSY      -0.584100
     39 N40          8.4920    24.7030    46.7410 ns         1 NSY      -0.495900
     40 C41          8.0250    25.6620    47.7150 c3         1 NSY       0.030700
     41 C42          6.7980    26.3980    47.1740 c          1 NSY       0.590100
     42 O43          6.8280    26.9150    46.0630 o          1 NSY      -0.648100
     43 C44          9.1340    26.6770    48.0260 c3         1 NSY      -0.035100
     44 C45          8.6740    27.7070    49.0190 ca         1 NSY      -0.096300
     45 C46          8.6030    27.3950    50.3750 ca         1 NSY      -0.102000
     46 C47          8.2650    28.9710    48.6010 ca         1 NSY      -0.102000
     47 C48          8.1300    28.3230    51.2920 ca         1 NSY      -0.109500
     48 C49          7.7910    29.9020    49.5160 ca         1 NSY      -0.109500
     49 C50          7.7200    29.5790    50.8640 ca         1 NSY      -0.105000
     50 C52          3.2820    25.1900    46.9610 ca         1 NSY      -0.081300
     51 C53          2.3560    24.8810    47.9560 ca         1 NSY      -0.106500
     52 C54          2.0490    23.5620    48.2580 ca         1 NSY      -0.104000
     53 C55          2.6670    22.5260    47.5670 ca         1 NSY      -0.108000
     54 C56          3.5910    22.8210    46.5750 ca         1 NSY      -0.104000
     55 C57          3.8940    24.1440    46.2780 ca         1 NSY      -0.106500
     56 C58          3.6390    26.6160    46.6560 c3         1 NSY      -0.052100
     57 C59          4.5580    27.2380    47.7120 c3         1 NSY       0.111000
     58 N60          5.7510    26.4690    47.9960 ns         1 NSY      -0.474900
     59 C62          9.9640    26.7830    32.7140 cp         1 NSY      -0.032000
     60 C63         10.8790    27.4910    31.9320 ca         1 NSY      -0.100500
     61 C64          9.2600    25.7330    32.1200 ca         1 NSY      -0.100500
     62 C65         11.0840    27.1590    30.6010 ca         1 NSY      -0.111000
     63 C66          9.4650    25.4010    30.7890 ca         1 NSY      -0.111000
     64 C67         10.3780    26.1130    30.0230 ca         1 NSY      -0.107000
     65 C68          9.2860    26.8910    39.1400 c          1 NSY       0.609100
     66 C69         11.3320    25.1800    43.2910 c3         1 NSY      -0.069400
     67 C70         11.3080    26.2480    42.2000 c3         1 NSY      -0.090400
     68 C71         10.3800    25.8660    41.0560 c3         1 NSY       0.099000
     69 N72         10.1530    26.9760    40.1550 ns         1 NSY      -0.508900
     70 O73          8.6410    25.8750    38.9040 o          1 NSY      -0.608100
     71 H1          15.4730    20.6060    42.0860 hc         1 NSY       0.078200
     72 H1A         14.1080    19.5290    42.3770 hc         1 NSY       0.078200
     73 H5          11.4450    19.8860    38.5520 ha         1 NSY       0.119500
     74 H6          12.6110    19.1390    40.5710 ha         1 NSY       0.116500
     75 H8          14.8060    22.8110    40.6640 ha         1 NSY       0.116500
     76 H9          13.6390    23.5630    38.6510 ha         1 NSY       0.119500
     77 H10          9.6130    23.5580    34.2620 ha         1 NSY       0.112000
     78 H11         11.3390    24.2340    38.1150 ha         1 NSY       0.111500
     79 H13         10.0390    25.0440    36.1950 ha         1 NSY       0.119500
     80 H14         11.8110    20.4350    36.1910 ha         1 NSY       0.111500
     81 H15         10.5050    21.2470    34.2740 ha         1 NSY       0.119500
     82 HN16        11.9930    20.9670    42.6640 hn         1 NSY       0.333500
     83 H17         12.3020    23.0140    44.7480 h1         1 NSY       0.081700
     84 H20         12.8600    23.9580    42.4400 hc         1 NSY       0.063700
     85 H20A        11.2560    23.4940    41.9220 hc         1 NSY       0.063700
     86 H22          9.8130    28.9280    38.6050 hc         1 NSY       0.071700
     87 H22A         8.1130    28.5090    38.4600 hc         1 NSY       0.071700
     88 H24         11.4370    28.2270    36.8660 ha         1 NSY       0.117500
     89 H25          7.2780    27.3240    36.4560 ha         1 NSY       0.117500
     90 H26         11.8050    27.6260    34.5280 ha         1 NSY       0.115000
     91 H27          7.6310    26.7460    34.1090 ha         1 NSY       0.115000
     92 HN29        10.3460    23.3580    45.7520 hn         1 NSY       0.318500
     93 H30          8.2740    21.5770    45.7920 h1         1 NSY       0.086700
     94 H31          7.4080    21.9950    43.6390 hc         1 NSY       0.066700
     95 H31A         6.3700    22.8170    44.7690 hc         1 NSY       0.066700
     96 H32          7.6470    24.9960    44.1940 hc         1 NSY       0.047200
     97 H32A         8.4750    24.0850    42.9490 hc         1 NSY       0.047200
     98 H33          6.2860    23.5050    41.9090 h1         1 NSY       0.050200
     99 H33A         5.4540    24.4560    43.1130 h1         1 NSY       0.050200
    100 HN34         7.0190    25.4050    40.8280 hn         1 NSY       0.521000
    101 HN36         5.3040    27.9600    43.3770 hn         1 NSY       0.457000
    102 HN3A         5.9560    26.5610    43.9810 hn         1 NSY       0.457000
    103 HN37         5.8490    28.5690    41.3310 hn         1 NSY       0.370400
    104 HN40         9.0450    25.0640    45.9780 hn         1 NSY       0.326500
    105 H41          7.7790    25.1230    48.6300 h1         1 NSY       0.087700
    106 H44          9.9920    26.1250    48.4150 hc         1 NSY       0.061700
    107 H44A         9.4520    27.1610    47.0990 hc         1 NSY       0.061700
    108 H46          8.9230    26.4170    50.7160 ha         1 NSY       0.116500
    109 H47          8.3160    29.2290    47.5500 ha         1 NSY       0.116500
    110 H48          8.0840    28.0660    52.3430 ha         1 NSY       0.116000
    111 H49          7.4770    30.8800    49.1750 ha         1 NSY       0.116000
    112 H50          7.3510    30.3040    51.5790 ha         1 NSY       0.115000
    113 H53          1.8660    25.6820    48.4980 ha         1 NSY       0.107500
    114 H54          1.3250    23.3410    49.0310 ha         1 NSY       0.111500
    115 H55          2.4270    21.4960    47.8000 ha         1 NSY       0.112000
    116 H56          4.0790    22.0230    46.0300 ha         1 NSY       0.111500
    117 H57          4.6140    24.3680    45.4980 ha         1 NSY       0.107500
    118 H58          4.1080    26.6800    45.6750 hc         1 NSY       0.061200
    119 H58A         2.7370    27.2310    46.6150 hc         1 NSY       0.061200
    120 H59          4.8380    28.2460    47.3990 h1         1 NSY       0.049700
    121 H59A         4.0200    27.3340    48.6540 h1         1 NSY       0.049700
    122 HN60         5.8030    25.9950    48.8830 hn         1 NSY       0.327500
    123 H63         11.4240    28.3230    32.3590 ha         1 NSY       0.113500
    124 H64          8.5560    25.1560    32.7070 ha         1 NSY       0.113500
    125 H65         11.7940    27.7260    30.0120 ha         1 NSY       0.112000
    126 H66          8.9130    24.5780    30.3520 ha         1 NSY       0.112000
    127 H67         10.5380    25.8540    28.9840 ha         1 NSY       0.112000
    128 H69         10.3260    25.0930    43.7100 hc         1 NSY       0.040700
    129 H70         10.9690    27.1890    42.6420 hc         1 NSY       0.046200
    130 H71         10.7910    25.0240    40.4940 h1         1 NSY       0.052700
    131 H71A         9.4210    25.5340    41.4630 h1         1 NSY       0.052700
    132 HN72        10.6680    27.8300    40.2950 hn         1 NSY       0.312500
    133 H69A        11.9740    25.5170    44.1090 hc         1 NSY       0.040700
    134 H70A        12.3190    26.4240    41.8190 hc         1 NSY       0.046200
@<TRIPOS>BOND
     1     1     2 1   
     2     1     7 1   
     3     1    71 1   
     4     1    72 1   
     5     2     3 2   
     6     2    16 1   
     7     4     5 ar  
     8     4     9 ar  
     9     4    12 1   
    10     5     6 ar  
    11     5    73 1   
    12     6     7 ar  
    13     6    74 1   
    14     7     8 ar  
    15     8     9 ar  
    16     8    75 1   
    17     9    76 1   
    18    10    13 ar  
    19    10    15 ar  
    20    10    77 1   
    21    11    12 ar  
    22    11    13 ar  
    23    11    78 1   
    24    12    14 ar  
    25    13    79 1   
    26    14    15 ar  
    27    14    80 1   
    28    15    81 1   
    29    16    17 1   
    30    16    82 1   
    31    17    18 1   
    32    17    20 1   
    33    17    83 1   
    34    18    19 2   
    35    18    28 1   
    36    20    66 1   
    37    20    84 1   
    38    20    85 1   
    39    21    22 1   
    40    21    65 1   
    41    21    86 1   
    42    21    87 1   
    43    22    23 ar  
    44    22    24 ar  
    45    23    25 ar  
    46    23    88 1   
    47    24    26 ar  
    48    24    89 1   
    49    25    27 ar  
    50    25    90 1   
    51    26    27 ar  
    52    26    91 1   
    53    27    59 1   
    54    28    29 1   
    55    28    92 1   
    56    29    30 1   
    57    29    37 1   
    58    29    93 1   
    59    30    31 1   
    60    30    94 1   
    61    30    95 1   
    62    31    32 1   
    63    31    96 1   
    64    31    97 1   
    65    32    33 1   
    66    32    98 1   
    67    32    99 1   
    68    33    34 1   
    69    33   100 1   
    70    34    35 1   
    71    34    36 2   
    72    35   101 1   
    73    35   102 1   
    74    36   103 1   
    75    37    38 2   
    76    37    39 1   
    77    39    40 1   
    78    39   104 1   
    79    40    41 1   
    80    40    43 1   
    81    40   105 1   
    82    41    42 2   
    83    41    58 1   
    84    43    44 1   
    85    43   106 1   
    86    43   107 1   
    87    44    45 ar  
    88    44    46 ar  
    89    45    47 ar  
    90    45   108 1   
    91    46    48 ar  
    92    46   109 1   
    93    47    49 ar  
    94    47   110 1   
    95    48    49 ar  
    96    48   111 1   
    97    49   112 1   
    98    50    51 ar  
    99    50    55 ar  
   100    50    56 1   
   101    51    52 ar  
   102    51   113 1   
   103    52    53 ar  
   104    52   114 1   
   105    53    54 ar  
   106    53   115 1   
   107    54    55 ar  
   108    54   116 1   
   109    55   117 1   
   110    56    57 1   
   111    56   118 1   
   112    56   119 1   
   113    57    58 1   
   114    57   120 1   
   115    57   121 1   
   116    58   122 1   
   117    59    60 ar  
   118    59    61 ar  
   119    60    62 ar  
   120    60   123 1   
   121    61    63 ar  
   122    61   124 1   
   123    62    64 ar  
   124    62   125 1   
   125    63    64 ar  
   126    63   126 1   
   127    64   127 1   
   128    65    69 1   
   129    65    70 2   
   130    66    67 1   
   131    66   128 1   
   132    66   133 1   
   133    67    68 1   
   134    67   129 1   
   135    67   134 1   
   136    68    69 1   
   137    68   130 1   
   138    68   131 1   
   139    69   132 1   
@<TRIPOS>SUBSTRUCTURE
     1 NSY         1 TEMP              0 ****  ****    0 ROOT
