@<TRIPOS>MOLECULE
56B
   55    58     1     0     0
SMALL
abcg2


@<TRIPOS>ATOM
      1 N9           0.5800     1.6910    -0.1130 na         1 56B       0.028000
      2 C2           2.5590     2.3310     1.2440 c5         1 56B       0.066300
      3 O2           2.2390     3.5990     1.7430 oh         1 56B      -0.721000
      4 P            3.1850    -2.8700    -0.0140 p5         1 56B       1.268900
      5 C1           1.9450     2.1520    -0.1460 c5         1 56B       0.316300
      6 N10         -2.9500    -1.2100    -0.1740 n7         1 56B      -0.812400
      7 O11         -3.8870    -3.8910    -1.4190 oh         1 56B      -0.597000
      8 C8           0.1420     0.4630     0.3620 cc         1 56B      -0.086000
      9 N3          -0.4360     3.7020    -0.9050 nc         1 56B      -0.673100
     10 O12         -5.8160    -4.6350     0.3670 oh         1 56B      -0.633000
     11 C7          -1.2190     0.4400     0.3780 cd         1 56B      -0.120300
     12 C9          -2.0770    -0.6820     0.8670 c3         1 56B       0.238100
     13 N1          -2.7790     3.6110    -0.8840 ns         1 56B      -0.453400
     14 O4           2.7520     1.2260    -0.8100 os         1 56B      -0.403000
     15 C10         -3.8840    -2.2040     0.3200 c5         1 56B       0.195700
     16 O5           3.8060    -1.3360    -0.4750 os         1 56B      -0.558400
     17 C11         -4.6520    -2.8880    -0.8180 c5         1 56B       0.187300
     18 OP2          3.1880    -3.5800    -1.3590 o          1 56B      -0.919500
     19 C12         -5.9820    -3.3430    -0.1850 c5         1 56B       0.152500
     20 C13         -6.1720    -2.2910     0.8780 c2         1 56B      -0.316200
     21 OP1          4.1810    -3.3920     1.0180 o          1 56B      -0.919500
     22 C14         -5.0210    -1.6990     1.1790 c2         1 56B      -0.193200
     23 O3           4.6230     3.2480     0.3730 oh         1 56B      -0.720000
     24 C5          -1.6440     1.7140    -0.1220 cd         1 56B      -0.291600
     25 C4          -0.5000     2.4530    -0.4120 cc         1 56B       0.134400
     26 C15         -1.5990     4.2470    -1.1390 cd         1 56B       0.679800
     27 C6          -2.9080     2.3200    -0.3640 c          1 56B       0.618600
     28 C17          3.9720     1.0010    -0.0930 c5         1 56B       0.143300
     29 C16          3.9980    -0.3890     0.5200 c3         1 56B       0.251600
     30 C3           4.0430     2.1060     0.9520 c5         1 56B       0.097300
     31 H1           2.1990     1.5360     1.9080 h1         1 56B       0.079700
     32 H2           2.3190     3.5860     2.7020 ho         1 56B       0.494000
     33 H3           1.9280     3.1130    -0.6710 h2         1 56B       0.083700
     34 H4          -3.4820    -0.4400    -0.5680 hn         1 56B       0.408000
     35 H6          -4.3410    -4.1930    -2.2110 ho         1 56B       0.426000
     36 H7           0.8350    -0.3250     0.6220 h4         1 56B       0.252000
     37 H8          -6.6420    -4.8810     0.7950 ho         1 56B       0.420000
     38 H9          -2.5170     6.0100    -1.6500 hn         1 56B       0.479000
     39 H10         -0.8140     6.0040    -1.7250 hn         1 56B       0.479000
     40 H11         -2.6350    -0.3330     1.7490 h1         1 56B       0.045200
     41 H12         -1.4320    -1.4910     1.2190 h1         1 56B       0.045200
     42 H13         -3.6470     4.0890    -1.0940 hn         1 56B       0.298500
     43 H14         -3.3050    -2.9530     0.8760 h1         1 56B       0.110700
     44 H15         -4.9110    -2.0970    -1.5370 h1         1 56B       0.029700
     45 H17         -6.7950    -3.3460    -0.9210 h1         1 56B       0.017700
     46 H18         -7.1240    -2.0980     1.3590 ha         1 56B       0.165000
     47 H21         -4.8910    -0.9420     1.9420 ha         1 56B       0.189000
     48 H23          4.3550     4.0120     0.8970 ho         1 56B       0.490000
     49 H24          4.8000     1.0940    -0.8040 h1         1 56B       0.081700
     50 H25          3.2350    -0.4530     1.3100 h1         1 56B      -0.011800
     51 H26          4.9690    -0.5010     1.0280 h1         1 56B      -0.011800
     52 H27          4.5930     1.7840     1.8470 h1         1 56B       0.052700
     53 OP3          1.7980    -2.5700     0.5610 o          1 56B      -0.919500
     54 N2          -1.6670     5.4720    -1.6920 nv         1 56B      -1.059200
     55 O6          -4.0240     1.8480    -0.1810 o          1 56B      -0.603000
@<TRIPOS>BOND
     1     1     5 1   
     2     1     8 1   
     3     1    25 1   
     4     2     3 1   
     5     2     5 1   
     6     2    30 1   
     7     2    31 1   
     8     3    32 1   
     9     4    16 1   
    10     4    18 1   
    11     4    21 1   
    12     4    53 1   
    13     5    14 1   
    14     5    33 1   
    15     6    12 1   
    16     6    15 1   
    17     6    34 1   
    18     7    17 1   
    19     7    35 1   
    20     8    11 2   
    21     8    36 1   
    22     9    25 1   
    23     9    26 2   
    24    10    19 1   
    25    10    37 1   
    26    11    12 1   
    27    11    24 1   
    28    12    40 1   
    29    12    41 1   
    30    13    26 1   
    31    13    27 1   
    32    13    42 1   
    33    14    28 1   
    34    15    17 1   
    35    15    22 1   
    36    15    43 1   
    37    16    29 1   
    38    17    19 1   
    39    17    44 1   
    40    19    20 1   
    41    19    45 1   
    42    20    22 2   
    43    20    46 1   
    44    22    47 1   
    45    23    30 1   
    46    23    48 1   
    47    24    25 2   
    48    24    27 1   
    49    26    54 1   
    50    27    55 2   
    51    28    29 1   
    52    28    30 1   
    53    28    49 1   
    54    29    50 1   
    55    29    51 1   
    56    30    52 1   
    57    38    54 1   
    58    39    54 1   
@<TRIPOS>SUBSTRUCTURE
     1 56B         1 TEMP              0 ****  ****    0 ROOT
