@<TRIPOS>MOLECULE
5B0
   28    28     1     0     0
SMALL
abcg2


@<TRIPOS>ATOM
      1 OAE          2.0350   -35.5930    26.1520 o          1 5B0      -0.933833
      2 PAP          3.3850   -35.9920    26.7630 p5         1 5B0       1.295500
      3 OAF          4.0390   -37.1810    26.0450 o          1 5B0      -0.933833
      4 OAC          4.3390   -34.8020    26.9420 o          1 5B0      -0.933833
      5 CAJ          2.9750   -36.5700    28.4750 c3         1 5B0      -0.379400
      6 CAI          4.1760   -36.9860    29.3380 c3         1 5B0      -0.009100
      7 CAN          3.7760   -37.2780    30.7610 ca         1 5B0      -0.016300
      8 CAH          3.5780   -38.5930    31.1680 ca         1 5B0       0.274900
      9 NAK          3.1630   -38.9500    32.3860 nb         1 5B0      -0.670000
     10 CAL          2.9150   -38.0020    33.2890 ca         1 5B0       0.258300
     11 CAA          2.4350   -38.4050    34.6520 c3         1 5B0      -0.110400
     12 CAM          3.1010   -36.6480    32.9760 ca         1 5B0       0.099100
     13 OAD          2.8530   -35.7360    33.9580 oh         1 5B0      -0.583100
     14 CAO          3.5410   -36.2700    31.7050 ca         1 5B0      -0.149300
     15 C1           3.8040   -34.8180    31.4050 c3         1 5B0       0.197900
     16 O2           2.7260   -34.0220    31.9400 oh         1 5B0      -0.693000
     17 HAJ1         2.4320   -35.7610    28.9700 hc         1 5B0       0.015700
     18 HAJ2         2.2790   -37.4100    28.4040 hc         1 5B0       0.015700
     19 HAI1         4.6350   -37.8780    28.9120 hc         1 5B0       0.051700
     20 HAI2         4.9350   -36.2040    29.3060 hc         1 5B0       0.051700
     21 HAH          3.7600   -39.3990    30.4660 h4         1 5B0       0.022100
     22 HAA1         2.3440   -39.4870    34.7040 hc         1 5B0       0.028033
     23 HAA2         3.1210   -38.0700    35.4310 hc         1 5B0       0.028033
     24 HAA3         1.4650   -37.9570    34.8740 hc         1 5B0       0.028033
     25 HAD          2.7590   -34.8620    33.5320 ho         1 5B0       0.484000
     26 H11C         4.7450   -34.5160    31.8750 h1         1 5B0       0.062200
     27 H12C         3.8890   -34.6460    30.3370 h1         1 5B0       0.062200
     28 H2           2.9800   -33.0940    31.8920 ho         1 5B0       0.438000
@<TRIPOS>BOND
     1     1     2 1   
     2     2     3 1   
     3     2     4 1   
     4     2     5 1   
     5     5     6 1   
     6     5    17 1   
     7     5    18 1   
     8     6     7 1   
     9     6    19 1   
    10     6    20 1   
    11     7     8 ar  
    12     7    14 ar  
    13     8     9 ar  
    14     8    21 1   
    15     9    10 ar  
    16    10    11 1   
    17    10    12 ar  
    18    11    22 1   
    19    11    23 1   
    20    11    24 1   
    21    12    13 1   
    22    12    14 ar  
    23    13    25 1   
    24    14    15 1   
    25    15    16 1   
    26    15    26 1   
    27    15    27 1   
    28    16    28 1   
@<TRIPOS>SUBSTRUCTURE
     1 5B0         1 TEMP              0 ****  ****    0 ROOT
