@<TRIPOS>MOLECULE
5B6
   47    49     1     0     0
SMALL
abcg2


@<TRIPOS>ATOM
      1 O3          -4.1050    -8.7240    -3.2850 o          1 5B6      -0.922500
      2 P1          -2.5980    -8.8050    -3.0700 p5         1 5B6       1.265900
      3 O4          -1.8070    -9.2200    -4.3000 o          1 5B6      -0.922500
      4 O2          -2.2070    -9.5330    -1.7890 o          1 5B6      -0.922500
      5 O5          -2.0770    -7.2180    -2.8590 os         1 5B6      -0.582400
      6 C9          -2.6680    -6.4450    -1.8240 c3         1 5B6       0.256900
      7 C8          -2.0680    -5.0670    -1.8320 ca         1 5B6      -0.024300
      8 C6          -2.3430    -4.1400    -2.8430 ca         1 5B6      -0.058300
      9 C5          -1.7130    -2.9000    -2.7740 ca         1 5B6       0.084100
     10 O1          -1.9820    -1.9900    -3.7530 oh         1 5B6      -0.540100
     11 C3          -0.8290    -2.6100    -1.7220 ca         1 5B6       0.215300
     12 C4          -0.1340    -1.2810    -1.6490 c3         1 5B6      -0.129400
     13 N2          -0.5840    -3.5050    -0.7670 nb         1 5B6      -0.673000
     14 C10         -1.1860    -4.6950    -0.8260 ca         1 5B6       0.289900
     15 C7          -3.3050    -4.4470    -3.9670 c3         1 5B6       0.152100
     16 N1          -4.6300    -3.9220    -3.6420 n2         1 5B6      -0.598900
     17 C1          -5.5860    -4.7500    -3.5870 ce         1 5B6       0.337200
     18 C2          -6.9700    -4.3540    -3.2570 ca         1 5B6       0.349700
     19 N3          -7.8410    -5.3670    -3.1660 nb         1 5B6      -0.605000
     20 C11         -9.1100    -5.0830    -2.8560 cp         1 5B6       0.317000
     21 C12         -9.5530    -3.7800    -2.6400 ca         1 5B6      -0.263000
     22 C13         -8.6390    -2.7340    -2.7440 ca         1 5B6       0.139100
     23 O6          -8.9840    -1.4400    -2.5630 oh         1 5B6      -0.540100
     24 C14         -7.3180    -3.0240    -3.0560 ca         1 5B6      -0.158000
     25 C15        -10.0600    -6.2260    -2.7450 cp         1 5B6       0.309000
     26 N4          -9.8560    -7.2740    -3.5540 nb         1 5B6      -0.598000
     27 C19        -10.6940    -8.3080    -3.4730 ca         1 5B6       0.344900
     28 C18        -11.7640    -8.3600    -2.5890 ca         1 5B6      -0.176000
     29 C17        -11.9710    -7.2770    -1.7460 ca         1 5B6      -0.087000
     30 C16        -11.1090    -6.1940    -1.8250 ca         1 5B6      -0.161000
     31 H3          -3.7500    -6.3950    -1.9660 h1         1 5B6       0.022700
     32 H4          -2.4870    -6.9100    -0.8520 h1         1 5B6       0.022700
     33 H5          -1.4690    -1.1850    -3.6210 ho         1 5B6       0.439000
     34 H6           0.5220    -1.2600    -0.7840 hc         1 5B6       0.028367
     35 H7           0.4680    -1.0940    -2.5420 hc         1 5B6       0.028367
     36 H8          -0.8490    -0.4590    -1.5590 hc         1 5B6       0.028367
     37 H9          -0.9560    -5.3940    -0.0310 h4         1 5B6       0.025100
     38 H10         -3.3270    -5.5210    -4.1570 h1         1 5B6       0.090200
     39 H11         -2.9650    -3.9450    -4.8720 h1         1 5B6       0.090200
     40 H12         -5.4520    -5.8190    -3.7750 h4         1 5B6       0.062800
     41 H13        -10.5900    -3.5750    -2.4160 ha         1 5B6       0.104000
     42 H14         -9.9220    -1.3630    -2.3480 ho         1 5B6       0.451000
     43 H15         -6.5820    -2.2400    -3.1450 ha         1 5B6       0.156000
     44 H16        -10.5020    -9.1340    -4.1470 h4         1 5B6       0.026100
     45 H17        -12.4100    -9.2260    -2.5640 ha         1 5B6       0.111000
     46 H18        -12.7850    -7.2760    -1.0350 ha         1 5B6       0.102000
     47 H19        -11.2350    -5.3460    -1.1690 ha         1 5B6       0.114000
@<TRIPOS>BOND
     1     1     2 1   
     2     2     3 1   
     3     2     4 1   
     4     2     5 1   
     5     5     6 1   
     6     6     7 1   
     7     6    31 1   
     8     6    32 1   
     9     7     8 ar  
    10     7    14 ar  
    11     8     9 ar  
    12     8    15 1   
    13     9    10 1   
    14     9    11 ar  
    15    10    33 1   
    16    11    12 1   
    17    11    13 ar  
    18    12    34 1   
    19    12    35 1   
    20    12    36 1   
    21    13    14 ar  
    22    14    37 1   
    23    15    16 1   
    24    15    38 1   
    25    15    39 1   
    26    16    17 2   
    27    17    18 1   
    28    17    40 1   
    29    18    19 ar  
    30    18    24 ar  
    31    19    20 ar  
    32    20    21 ar  
    33    20    25 1   
    34    21    22 ar  
    35    21    41 1   
    36    22    23 1   
    37    22    24 ar  
    38    23    42 1   
    39    24    43 1   
    40    25    26 ar  
    41    25    30 ar  
    42    26    27 ar  
    43    27    28 ar  
    44    27    44 1   
    45    28    29 ar  
    46    28    45 1   
    47    29    30 ar  
    48    29    46 1   
    49    30    47 1   
@<TRIPOS>SUBSTRUCTURE
     1 5B6         1 TEMP              0 ****  ****    0 ROOT
