@<TRIPOS>MOLECULE
5DB
   37    38     1     0     0
SMALL
abcg2


@<TRIPOS>ATOM
      1 P            4.3220    -1.1700    -0.3220 p5         1 5DB       1.272900
      2 OP1          3.7770    -2.1520     0.7120 o          1 5DB      -0.923833
      3 O5           2.9870    -0.1580    -0.7120 os         1 5DB      -0.573400
      4 C5           2.4000     0.5590     0.3230 c3         1 5DB       0.257600
      5 C4           1.3720     1.5250    -0.2190 c5         1 5DB       0.156300
      6 C3           0.7630     2.4410     0.8410 c5         1 5DB       0.124300
      7 O3           1.5800     3.5750     0.9950 oh         1 5DB      -0.699000
      8 C2          -0.6270     2.7280     0.2710 c5         1 5DB      -0.152400
      9 C1          -0.8880     1.5760    -0.7060 c5         1 5DB       0.333700
     10 O4           0.2800     0.8110    -0.7780 os         1 5DB      -0.401000
     11 N1          -2.0180     0.7050    -0.3910 n          1 5DB      -0.298000
     12 C6          -2.9500     0.4810    -1.3530 cc         1 5DB       0.032600
     13 C8          -4.0280    -0.3120    -1.1640 cd         1 5DB      -0.373800
     14 C7          -5.0580    -0.5650    -2.2180 c3         1 5DB       0.000100
     15 C9          -4.0950    -0.8890     0.1390 cd         1 5DB       0.752900
     16 N3          -3.2060    -0.7090     1.0670 nc         1 5DB      -0.774100
     17 C10         -2.1150     0.0760     0.8530 c          1 5DB       0.713400
     18 O2          -1.2580     0.2380     1.7040 o          1 5DB      -0.492000
     19 O1          -5.1460    -1.6500     0.3670 os         1 5DB      -0.432600
     20 OP2          5.3800    -0.2110     0.2180 o          1 5DB      -0.923833
     21 C11         -5.2790    -2.2760     1.6400 c3         1 5DB       0.161900
     22 H2           1.9030    -0.0910     1.0590 h1         1 5DB       0.012700
     23 H3           3.1360     1.1550     0.8850 h1         1 5DB       0.012700
     24 H4           1.8370     2.1570    -0.9920 h1         1 5DB       0.054700
     25 H5           0.6720     1.8950     1.7850 h1         1 5DB       0.074700
     26 H6           1.3170     4.0290     1.8000 ho         1 5DB       0.478000
     27 H7          -1.3990     2.8340     1.0310 hc         1 5DB       0.042200
     28 H8          -0.5940     3.6620    -0.2940 hc         1 5DB       0.042200
     29 H9          -1.1300     1.9860    -1.6910 h2         1 5DB       0.025700
     30 H10         -2.7860     0.9830    -2.2990 h4         1 5DB       0.199000
     31 H11         -5.1360    -1.6250    -2.4590 hc         1 5DB       0.029033
     32 H12         -6.0470    -0.2280    -1.9050 hc         1 5DB       0.029033
     33 H13         -4.8010    -0.0350    -3.1340 hc         1 5DB       0.029033
     34 H15         -4.4410    -2.9410     1.8470 h1         1 5DB       0.044700
     35 H16         -5.3540    -1.5400     2.4400 h1         1 5DB       0.044700
     36 H17         -6.1980    -2.8520     1.5900 h1         1 5DB       0.044700
     37 OP3          4.6230    -1.7660    -1.6900 o          1 5DB      -0.923833
@<TRIPOS>BOND
     1     1     2 1   
     2     1     3 1   
     3     1    20 1   
     4     1    37 1   
     5     3     4 1   
     6     4     5 1   
     7     4    22 1   
     8     4    23 1   
     9     5     6 1   
    10     5    10 1   
    11     5    24 1   
    12     6     7 1   
    13     6     8 1   
    14     6    25 1   
    15     7    26 1   
    16     8     9 1   
    17     8    27 1   
    18     8    28 1   
    19     9    10 1   
    20     9    11 1   
    21     9    29 1   
    22    11    12 1   
    23    11    17 1   
    24    12    13 2   
    25    12    30 1   
    26    13    14 1   
    27    13    15 1   
    28    14    31 1   
    29    14    32 1   
    30    14    33 1   
    31    15    16 2   
    32    15    19 1   
    33    16    17 1   
    34    17    18 2   
    35    19    21 1   
    36    21    34 1   
    37    21    35 1   
    38    21    36 1   
@<TRIPOS>SUBSTRUCTURE
     1 5DB         1 TEMP              0 ****  ****    0 ROOT
