@<TRIPOS>MOLECULE
5FC
   34    35     1     0     0
SMALL
abcg2


@<TRIPOS>ATOM
      1 P           -3.9210    -1.8250     2.8440 p5         1 5FC       1.274900
      2 OP2         -3.4580    -2.5500     1.5740 o          1 5FC      -0.921500
      3 OP1         -4.1010    -2.7070     4.0690 o          1 5FC      -0.921500
      4 O5          -2.5620    -0.8950     3.3180 os         1 5FC      -0.571400
      5 N1           1.0300    -2.0790     1.0000 n          1 5FC      -0.317000
      6 C6          -0.0540    -2.8520     1.0100 cc         1 5FC       0.113600
      7 C2           2.1840    -2.4610     0.2670 c          1 5FC       0.718400
      8 O2           3.1110    -1.6710     0.2020 o          1 5FC      -0.602000
      9 N3           2.1970    -3.6720    -0.3160 nc         1 5FC      -0.838100
     10 C4           1.1450    -4.4660    -0.2760 cd         1 5FC       0.809500
     11 N4           1.2300    -5.6520    -0.8630 nv         1 5FC      -1.039200
     12 C5          -0.0730    -4.0690     0.3820 cd         1 5FC      -0.526800
     13 C7           0.6550     0.3880     0.8060 c5         1 5FC      -0.161400
     14 C9          -2.0760     0.0540     2.4270 c3         1 5FC       0.240600
     15 C8          -0.6380     0.3750     2.7850 c5         1 5FC       0.149300
     16 O4           0.1740    -0.8050     2.7620 os         1 5FC      -0.433000
     17 C1           1.0690    -0.7800     1.6940 c5         1 5FC       0.335700
     18 C3           0.0270     1.3430     1.8130 c5         1 5FC       0.122300
     19 O3           0.9960     2.0780     2.5270 oh         1 5FC      -0.722000
     20 C5A         -1.2910    -4.8500     0.4460 c          1 5FC       0.606100
     21 O5A         -1.4360    -5.9620    -0.0360 o          1 5FC      -0.639100
     22 OP3         -5.0260    -0.8040     2.5950 o          1 5FC      -0.921500
     23 H6          -0.9350    -2.4980     1.5360 h4         1 5FC       0.307000
     24 HN41         2.0810    -5.9170    -1.3320 hn         1 5FC       0.502000
     25 HN42         0.4420    -6.2790    -0.8670 hn         1 5FC       0.502000
     26 H2          -0.0870     0.0700     0.0710 hc         1 5FC       0.063700
     27 H2'          1.4950     0.8190     0.2620 hc         1 5FC       0.063700
     28 H5          -2.1270    -0.2930     1.3840 h1         1 5FC      -0.002800
     29 H5'         -2.6450     0.9960     2.4690 h1         1 5FC      -0.002800
     30 H4          -0.6060     0.7750     3.8040 h1         1 5FC       0.081700
     31 H1           2.0910    -0.6680     2.0590 h2         1 5FC       0.077700
     32 H3          -0.7080     2.0050     1.3370 h1         1 5FC       0.051700
     33 HO3          1.5050     2.5990     1.8980 ho         1 5FC       0.480000
     34 H5A         -2.1180    -4.3450     0.9730 h4         1 5FC       0.120200
@<TRIPOS>BOND
     1     1     2 1   
     2     1     3 1   
     3     1     4 1   
     4     1    22 1   
     5     4    14 1   
     6     5     6 1   
     7     5     7 1   
     8     5    17 1   
     9     6    12 2   
    10     6    23 1   
    11     7     8 2   
    12     7     9 1   
    13     9    10 2   
    14    10    11 1   
    15    10    12 1   
    16    11    24 1   
    17    11    25 1   
    18    12    20 1   
    19    13    17 1   
    20    13    18 1   
    21    13    26 1   
    22    13    27 1   
    23    14    15 1   
    24    14    28 1   
    25    14    29 1   
    26    15    16 1   
    27    15    18 1   
    28    15    30 1   
    29    16    17 1   
    30    17    31 1   
    31    18    19 1   
    32    18    32 1   
    33    19    33 1   
    34    20    21 2   
    35    20    34 1   
@<TRIPOS>SUBSTRUCTURE
     1 5FC         1 TEMP              0 ****  ****    0 ROOT
