@<TRIPOS>MOLECULE
5JO
   40    42     1     0     0
SMALL
abcg2


@<TRIPOS>ATOM
      1 O5          10.2470    20.9000    -9.0800 os         1 5JO      -0.601400
      2 C5           9.0400    21.5590    -9.2610 c3         1 5JO       0.248600
      3 C4           8.0320    21.1500    -8.2090 c5         1 5JO       0.152300
      4 O4           7.6320    19.7910    -8.3950 os         1 5JO      -0.426000
      5 C3           8.5310    21.1950    -6.7690 c5         1 5JO       0.147300
      6 O3           8.5180    22.5030    -6.2860 oh         1 5JO      -0.682000
      7 C2           7.5800    20.2160    -6.0760 c5         1 5JO       0.067300
      8 O2           6.3690    20.8730    -5.8160 os         1 5JO      -0.419000
      9 C1           7.4030    19.1550    -7.1780 c5         1 5JO       0.293300
     10 N9           8.3340    18.0470    -7.0290 na         1 5JO      -0.296300
     11 C8           9.6020    17.9190    -7.5290 cc         1 5JO       0.481700
     12 N7          10.1760    16.8020    -7.1840 nd         1 5JO      -0.580100
     13 C9           9.2430    16.1590    -6.4120 ca         1 5JO      -0.077600
     14 C6           9.2340    14.9210    -5.7430 ca         1 5JO       0.433900
     15 N6          10.2720    14.0830    -5.7590 nv         1 5JO      -1.081900
     16 N1           8.1330    14.5840    -5.0610 nb         1 5JO      -0.330000
     17 C11          7.1000    15.4220    -5.0410 ca         1 5JO       0.143900
     18 N3           6.9880    16.6020    -5.6250 nb         1 5JO      -0.225000
     19 C10          8.0900    16.9200    -6.3020 ca         1 5JO       0.085500
     20 P           11.5240    21.2330   -10.1960 p5         1 5JO       1.267900
     21 OP1         11.6540    22.7520   -10.1760 o          1 5JO      -0.917833
     22 OP2         12.6650    20.4710    -9.5390 o          1 5JO      -0.917833
     23 C13          5.5520    20.1930    -4.8900 c3         1 5JO       0.228700
     24 C7           4.3030    20.9280    -4.7450 c1         1 5JO      -0.107100
     25 C12          3.2690    21.5260    -4.6260 c1         1 5JO      -0.270000
     26 H1           9.1430    22.6500    -9.1860 h1         1 5JO       0.020200
     27 H2           8.6010    21.3650   -10.2520 h1         1 5JO       0.020200
     28 H3           7.1540    21.8020    -8.3120 h1         1 5JO       0.037700
     29 H4           9.5390    20.7630    -6.7310 h1         1 5JO       0.101700
     30 H5           9.0530    22.5450    -5.4880 ho         1 5JO       0.490000
     31 H6           8.0010    19.7820    -5.1590 h1         1 5JO       0.048700
     32 H7           6.4010    18.7140    -7.1570 h2         1 5JO       0.076700
     33 H8          10.0480    18.6880    -8.1450 h5         1 5JO       0.160800
     34 H9          10.2170    13.1970    -5.2870 hn         1 5JO       0.497500
     35 H10         11.1050    14.2980    -6.2770 hn         1 5JO       0.497500
     36 H11          6.2400    15.0880    -4.4690 h5         1 5JO       0.020100
     37 H14          5.3310    19.1660    -5.2090 h1         1 5JO       0.043700
     38 H15          6.0490    20.1160    -3.9140 h1         1 5JO       0.043700
     39 H16          2.3520    22.0610    -4.5240 ha         1 5JO       0.242000
     40 OP3         11.0240    20.6590   -11.5180 o          1 5JO      -0.917833
@<TRIPOS>BOND
     1     1     2 1   
     2     1    20 1   
     3     2     3 1   
     4     2    26 1   
     5     2    27 1   
     6     3     4 1   
     7     3     5 1   
     8     3    28 1   
     9     4     9 1   
    10     5     6 1   
    11     5     7 1   
    12     5    29 1   
    13     6    30 1   
    14     7     8 1   
    15     7     9 1   
    16     7    31 1   
    17     8    23 1   
    18     9    10 1   
    19     9    32 1   
    20    10    11 1   
    21    10    19 1   
    22    11    12 2   
    23    11    33 1   
    24    12    13 1   
    25    13    14 ar  
    26    13    19 ar  
    27    14    15 1   
    28    14    16 ar  
    29    15    34 1   
    30    15    35 1   
    31    16    17 ar  
    32    17    18 ar  
    33    17    36 1   
    34    18    19 ar  
    35    20    21 1   
    36    20    22 1   
    37    20    40 1   
    38    23    24 1   
    39    23    37 1   
    40    23    38 1   
    41    24    25 3   
    42    25    39 1   
@<TRIPOS>SUBSTRUCTURE
     1 5JO         1 TEMP              0 ****  ****    0 ROOT
