@<TRIPOS>MOLECULE
5MD
   31    32     1     0     0
SMALL
abcg2


@<TRIPOS>ATOM
      1 O5          56.1880    -7.7680   -21.9690 oh         1 5MD      -0.708000
      2 C5          55.5980    -6.6780   -22.6370 c3         1 5MD       0.137600
      3 C4          56.3150    -5.4070   -22.2150 c5         1 5MD       0.166300
      4 O4          57.7110    -5.4840   -22.4550 os         1 5MD      -0.441000
      5 C1          58.0560    -4.8230   -23.6590 c5         1 5MD       0.243500
      6 C9          58.7600    -5.7670   -24.5900 cc         1 5MD      -0.302400
      7 C6          58.8160    -7.0960   -24.3910 cd         1 5MD       0.017600
      8 C2          59.4090    -5.2230   -25.7610 c          1 5MD       0.592200
      9 O2          59.4320    -4.0430   -26.0650 o          1 5MD      -0.538000
     10 N3          60.0320    -6.1680   -26.5540 ns         1 5MD      -0.467500
     11 C8          60.0900    -7.5280   -26.3660 c          1 5MD       0.616000
     12 O1          60.6680    -8.2590   -27.1430 o          1 5MD      -0.554000
     13 N5          59.4460    -7.9670   -25.2360 n          1 5MD      -0.310000
     14 C7          59.4260    -9.3860   -24.9090 c3         1 5MD       0.086300
     15 C3          55.8410    -4.1950   -23.0050 c5         1 5MD       0.140300
     16 O3          56.0870    -3.0490   -22.2210 oh         1 5MD      -0.706000
     17 C10         56.7440    -4.2660   -24.2320 c5         1 5MD      -0.145400
     18 H5          55.7820    -8.5760   -22.2960 ho         1 5MD       0.500000
     19 H5'1        55.6480    -6.7990   -23.7280 h1         1 5MD       0.022200
     20 H5'2        54.5360    -6.5680   -22.3780 h1         1 5MD       0.022200
     21 H4          56.1670    -5.2600   -21.1400 h1         1 5MD       0.100700
     22 H1          58.7370    -3.9970   -23.4180 h1         1 5MD       0.084700
     23 H6          58.3500    -7.5560   -23.5300 h4         1 5MD       0.232000
     24 HN3         60.5010    -5.8280   -27.3850 hn         1 5MD       0.343500
     25 H51         59.9570    -9.9450   -25.6690 h1         1 5MD       0.058700
     26 H52         59.9070    -9.5540   -23.9470 h1         1 5MD       0.058700
     27 H53         58.3980    -9.7420   -24.8610 h1         1 5MD       0.058700
     28 H3          54.7810    -4.2730   -23.2780 h1         1 5MD       0.047700
     29 H3'A        55.9390    -2.2720   -22.7700 ho         1 5MD       0.509000
     30 H2'1        56.8770    -3.3000   -24.7190 hc         1 5MD       0.066700
     31 H2'2        56.3190    -4.9470   -24.9730 hc         1 5MD       0.066700
@<TRIPOS>BOND
     1     1     2 1   
     2     1    18 1   
     3     2     3 1   
     4     2    19 1   
     5     2    20 1   
     6     3     4 1   
     7     3    15 1   
     8     3    21 1   
     9     4     5 1   
    10     5     6 1   
    11     5    17 1   
    12     5    22 1   
    13     6     7 2   
    14     6     8 1   
    15     7    13 1   
    16     7    23 1   
    17     8     9 2   
    18     8    10 1   
    19    10    11 1   
    20    10    24 1   
    21    11    12 2   
    22    11    13 1   
    23    13    14 1   
    24    14    25 1   
    25    14    26 1   
    26    14    27 1   
    27    15    16 1   
    28    15    17 1   
    29    15    28 1   
    30    16    29 1   
    31    17    30 1   
    32    17    31 1   
@<TRIPOS>SUBSTRUCTURE
     1 5MD         1 TEMP              0 ****  ****    0 ROOT
