@<TRIPOS>MOLECULE
5MY
   39    39     1     0     0
SMALL
abcg2


@<TRIPOS>ATOM
      1 O31         69.9300    53.5870    63.1130 o          1 5MY      -0.979833
      2 P1          69.2080    52.9390    64.2960 p5         1 5MY       1.328900
      3 O21         68.9050    51.4530    64.1260 o          1 5MY      -0.979833
      4 O41         69.8100    53.3070    65.6560 o          1 5MY      -0.979833
      5 O11         67.6360    53.5860    64.2940 os         1 5MY      -0.586900
      6 C1          67.4200    54.9650    64.2050 c6         1 5MY       0.218300
      7 C2          67.2800    55.5760    65.5940 c6         1 5MY       0.111300
      8 O12         66.2820    54.9210    66.3350 oh         1 5MY      -0.738000
      9 C3          67.0160    57.0820    65.5030 c6         1 5MY       0.218300
     10 O13         66.8100    57.6870    66.7570 os         1 5MY      -0.586900
     11 P3          67.6320    57.2920    68.1790 p5         1 5MY       1.328900
     12 O23         67.1300    58.3590    69.1370 o          1 5MY      -0.979833
     13 O33         69.1220    57.3370    67.8580 o          1 5MY      -0.979833
     14 O43         67.1230    55.8730    68.5440 o          1 5MY      -0.979833
     15 C6          66.2020    55.2630    63.3200 c6         1 5MY       0.233800
     16 O16         66.3650    54.6620    62.0740 os         1 5MY      -0.596400
     17 P6          65.4690    53.3440    61.4790 p5         1 5MY       1.350900
     18 O26         64.4550    52.9780    62.5650 o          1 5MY      -0.986333
     19 O36         66.5320    52.2740    61.2140 o          1 5MY      -0.986333
     20 O46         64.8340    53.9010    60.2030 o          1 5MY      -0.986333
     21 C5          66.0220    56.7970    63.1930 c6         1 5MY       0.242300
     22 O15         64.9410    57.0980    62.3570 os         1 5MY      -0.585400
     23 P5          65.0570    57.8950    60.8380 p5         1 5MY       1.359900
     24 O25         66.2850    57.3310    60.1260 o          1 5MY      -0.985833
     25 O35         65.1860    59.3930    61.1130 o          1 5MY      -0.985833
     26 O45         63.7120    57.4860    60.2390 o          1 5MY      -0.985833
     27 C4          65.7930    57.3710    64.6140 c6         1 5MY       0.233800
     28 O14         65.5320    58.7430    64.5920 os         1 5MY      -0.596400
     29 P4          64.1430    59.4690    65.2840 p5         1 5MY       1.350900
     30 O34         63.4490    58.3860    66.1100 o          1 5MY      -0.986333
     31 O44         64.7500    60.6170    66.0890 o          1 5MY      -0.986333
     32 O24         63.3140    59.9420    64.0900 o          1 5MY      -0.986333
     33 H1          68.2820    55.4600    63.7260 h1         1 5MY      -0.026800
     34 H2          68.2550    55.4400    66.0780 h1         1 5MY       0.011700
     35 H6          65.3030    54.8710    63.8150 h1         1 5MY       0.032700
     36 H12         66.4950    55.2070    67.2750 ho         1 5MY       0.475000
     37 H3          67.8990    57.5330    65.0120 h1         1 5MY      -0.026800
     38 H4          64.9410    56.8330    65.0470 h1         1 5MY       0.032700
     39 H5          66.9600    57.2180    62.7880 h1         1 5MY      -0.032300
@<TRIPOS>BOND
     1     1     2 1   
     2     2     3 1   
     3     2     4 1   
     4     2     5 1   
     5     5     6 1   
     6     6     7 1   
     7     6    15 1   
     8     6    33 1   
     9     7     8 1   
    10     7     9 1   
    11     7    34 1   
    12     8    36 1   
    13     9    10 1   
    14     9    27 1   
    15     9    37 1   
    16    10    11 1   
    17    11    12 1   
    18    11    13 1   
    19    11    14 1   
    20    15    16 1   
    21    15    21 1   
    22    15    35 1   
    23    16    17 1   
    24    17    18 1   
    25    17    19 1   
    26    17    20 1   
    27    21    22 1   
    28    21    27 1   
    29    21    39 1   
    30    22    23 1   
    31    23    24 1   
    32    23    25 1   
    33    23    26 1   
    34    27    28 1   
    35    27    38 1   
    36    28    29 1   
    37    29    30 1   
    38    29    31 1   
    39    29    32 1   
@<TRIPOS>SUBSTRUCTURE
     1 5MY         1 TEMP              0 ****  ****    0 ROOT
