@<TRIPOS>MOLECULE
5NG
  158   163     1     0     0
SMALL
abcg2


@<TRIPOS>ATOM
      1 C17         -5.3740     5.9020    -0.6010 c5         1 5NG       0.279300
      2 C20         -6.6390     6.5600    -2.4930 c5         1 5NG       0.234800
      3 C01         -3.6680    -2.0410     0.3670 c3         1 5NG      -0.082600
      4 C02         -4.5800    -0.9930     1.0060 c3         1 5NG      -0.067500
      5 C03         -4.1730     0.3960     0.5080 c3         1 5NG      -0.082600
      6 C04         -6.0430    -1.2710     0.6400 c3         1 5NG       0.251600
      7 O05         -6.1700    -1.4120    -0.7620 os         1 5NG      -0.586900
      8 P06         -7.5680    -1.0450    -1.5290 p5         1 5NG       1.487300
      9 O07         -8.7290    -1.1950    -0.5970 o          1 5NG      -0.877500
     10 O08         -7.5280    -1.7280    -2.8580 o          1 5NG      -0.877500
     11 O09         -7.2450     0.5700    -1.7060 os         1 5NG      -0.701800
     12 P10         -7.6020     1.4940    -3.0180 p5         1 5NG       1.481800
     13 O11         -9.0380     1.3090    -3.4010 o          1 5NG      -0.870750
     14 O12         -6.5140     1.4190    -4.0440 o          1 5NG      -0.870750
     15 O13         -7.4280     2.8990    -2.1690 os         1 5NG      -0.593400
     16 C14         -6.9770     4.0580    -2.8380 c3         1 5NG       0.210100
     17 O16         -6.4360     5.0230    -0.6970 os         1 5NG      -0.454000
     18 C18         -5.1870     6.5290    -1.9890 c5         1 5NG       0.119300
     19 O19         -4.5850     7.7830    -1.9950 oh         1 5NG      -0.706500
     20 O21         -7.3230     7.6480    -1.9620 os         1 5NG      -0.567400
     21 P22         -8.6260     8.2980    -2.8940 p5         1 5NG       1.287900
     22 O23         -9.5560     7.1100    -3.1420 o          1 5NG      -0.913500
     23 O24         -9.1590     9.3550    -1.9400 o          1 5NG      -0.913500
     24 O25         -7.9550     8.8330    -4.1540 o          1 5NG      -0.913500
     25 N26         -4.2210     5.1300    -0.1470 na         1 5NG      -0.284300
     26 C27         -4.2410     3.8880     0.4240 cc         1 5NG       0.436200
     27 N28         -3.0870     3.5130     0.8920 nd         1 5NG      -0.594600
     28 C29         -2.2590     4.5700     0.6320 ca         1 5NG      -0.101100
     29 C30         -0.9090     4.8210     0.9300 ca         1 5NG       0.434400
     30 N31         -0.1520     3.9600     1.6170 nv         1 5NG      -1.075900
     31 N32         -0.3850     5.9900     0.5300 nb         1 5NG      -0.299000
     32 C33         -1.1510     6.8600    -0.1230 ca         1 5NG       0.166400
     33 N34         -2.4330     6.7470    -0.4320 nb         1 5NG      -0.246500
     34 C35         -2.9450     5.5830    -0.0230 ca         1 5NG       0.101500
     35 C36         -4.3910    -1.0080     2.5560 c3         1 5NG       0.092300
     36 O37         -5.3250    -0.1880     3.2140 oh         1 5NG      -0.686500
     37 C38         -4.4300    -2.3990     3.2040 c          1 5NG       0.576100
     38 O39         -5.5000    -2.9390     3.4790 o          1 5NG      -0.660600
     39 N40         -3.2330    -2.9400     3.4500 ns         1 5NG      -0.497400
     40 C41         -3.0220    -4.2970     3.9260 c3         1 5NG       0.140500
     41 C42         -2.9410    -5.3120     2.7840 c3         1 5NG      -0.193400
     42 C43         -2.4170    -6.6670     3.2200 c          1 5NG       0.617100
     43 O44         -2.5650    -7.0930     4.3590 o          1 5NG      -0.686100
     44 N45         -1.7890    -7.3670     2.2520 ns         1 5NG      -0.502400
     45 C46         -1.1030    -8.6250     2.4630 c3         1 5NG       0.113000
     46 C47          0.3110    -8.4750     3.0230 c3         1 5NG       0.056100
     47 S48          1.2800   -10.0130     2.9120 ss         1 5NG      -0.364000
     48 S49          1.4870   -10.2850     0.8780 ss         1 5NG      -0.364000
     49 C50          2.7010    -9.0110     0.4320 c3         1 5NG       0.056100
     50 C51          4.0750    -9.2530     1.0290 c3         1 5NG       0.113000
     51 N52          4.8890    -8.0700     0.8440 ns         1 5NG      -0.502400
     52 C53          6.0520    -7.8760     1.4870 c          1 5NG       0.617100
     53 O54          6.5850    -8.7470     2.1630 o          1 5NG      -0.686100
     54 C55          6.6100    -6.4750     1.3630 c3         1 5NG      -0.193400
     55 C56          8.1290    -6.3870     1.4370 c3         1 5NG       0.140500
     56 N57          8.5380    -5.0050     1.5280 ns         1 5NG      -0.497400
     57 C58          8.5940    -4.1610     0.4870 c          1 5NG       0.576100
     58 O59          8.4170    -4.5130    -0.6710 o          1 5NG      -0.660600
     59 C60          8.9000    -2.7020     0.8490 c3         1 5NG       0.092300
     60 O61          9.5000    -2.6130     2.1220 oh         1 5NG      -0.686500
     61 C62          7.6470    -1.7910     0.6860 c3         1 5NG      -0.067500
     62 C63          7.1970    -1.7490    -0.7750 c3         1 5NG      -0.082600
     63 C64          6.4870    -2.2880     1.5580 c3         1 5NG      -0.082600
     64 C65          8.0600    -0.3730     1.1090 c3         1 5NG       0.251600
     65 O66          6.9470     0.4870     1.0260 os         1 5NG      -0.586900
     66 P67          7.1830     2.1090     0.9200 p5         1 5NG       1.487300
     67 O68          7.9890     2.4570    -0.2910 o          1 5NG      -0.877500
     68 O69          7.5850     2.6090     2.2720 o          1 5NG      -0.877500
     69 O70          5.6120     2.5460     0.7310 os         1 5NG      -0.701800
     70 P71          4.4920     2.1390    -0.3910 p5         1 5NG       1.481800
     71 O72          5.0960     1.5670    -1.6350 o          1 5NG      -0.870750
     72 O73          3.5500     3.3030    -0.4840 o          1 5NG      -0.870750
     73 O74          3.7790     0.9260     0.4520 os         1 5NG      -0.593400
     74 C75          3.0180     0.0140    -0.2960 c3         1 5NG       0.210100
     75 C76          1.7050    -0.2560     0.3950 c5         1 5NG       0.116800
     76 O77          0.8860     0.9220     0.4650 os         1 5NG      -0.454000
     77 C78         -0.1960     0.8120    -0.3900 c5         1 5NG       0.279300
     78 C79          0.0870    -0.3940    -1.3030 c5         1 5NG       0.119300
     79 O80         -1.0370    -1.0150    -1.8400 oh         1 5NG      -0.706500
     80 C81          0.8620    -1.2910    -0.3380 c5         1 5NG       0.234800
     81 O82         -0.0160    -1.9070     0.5240 os         1 5NG      -0.567400
     82 P83          0.4740    -3.4150     1.1490 p5         1 5NG       1.287900
     83 O84          0.3240    -4.3920    -0.0150 o          1 5NG      -0.913500
     84 O85          1.9080    -3.1830     1.6110 o          1 5NG      -0.913500
     85 O86         -0.5650    -3.5580     2.2560 o          1 5NG      -0.913500
     86 N87         -0.3380     2.0660    -1.1100 na         1 5NG      -0.284300
     87 C88          0.4570     3.1790    -1.1000 cc         1 5NG       0.436200
     88 N89         -0.0390     4.1620    -1.8020 nd         1 5NG      -0.594600
     89 C90         -1.2160     3.6680    -2.3020 ca         1 5NG      -0.101100
     90 C91         -2.2370     4.2080    -3.1090 ca         1 5NG       0.434400
     91 N92         -2.2130     5.4570    -3.5670 nv         1 5NG      -1.075900
     92 N93         -3.2690     3.4170    -3.4320 nb         1 5NG      -0.299000
     93 C94         -3.2950     2.1640    -2.9940 ca         1 5NG       0.166400
     94 N95         -2.4130     1.5540    -2.2230 nb         1 5NG      -0.246500
     95 C96         -1.4050     2.3600    -1.8910 ca         1 5NG       0.101500
     96 H151        -8.2160     5.3390    -1.6660 h1         1 5NG       0.111200
     97 H171        -5.5680     6.6820     0.1470 h2         1 5NG       0.078200
     98 H201        -6.6620     6.5510    -3.5910 h1         1 5NG       0.044200
     99 H011        -2.6460    -1.9520     0.7330 hc         1 5NG       0.049367
    100 H012        -4.0080    -3.0590     0.5670 hc         1 5NG       0.049367
    101 H013        -3.6390    -1.9150    -0.7150 hc         1 5NG       0.049367
    102 H031        -4.3120     0.4860    -0.5690 hc         1 5NG       0.049367
    103 H032        -4.7590     1.1810     0.9900 hc         1 5NG       0.049367
    104 H033        -3.1210     0.5850     0.7180 hc         1 5NG       0.049367
    105 H041        -6.3820    -2.1910     1.1250 h1         1 5NG      -0.000800
    106 H042        -6.6720    -0.4560     1.0140 h1         1 5NG      -0.000800
    107 H141        -5.9260     3.9620    -3.1340 h1         1 5NG       0.019450
    108 H142        -7.5510     4.2570    -3.7520 h1         1 5NG       0.019450
    109 H181        -4.6320     5.8050    -2.6030 h1         1 5NG       0.024700
    110 H191        -3.7100     7.6720    -1.5840 ho         1 5NG       0.517000
    111 H271        -5.1410     3.2960     0.4610 h5         1 5NG       0.122800
    112 H311        -0.5010     3.0500     1.8710 hn         1 5NG       0.500500
    113 H312         0.8340     4.1360     1.7300 hn         1 5NG       0.500500
    114 H331        -0.6650     7.7780    -0.4340 h5         1 5NG       0.052600
    115 H361        -3.3990    -0.5820     2.7430 h1         1 5NG       0.076700
    116 H371        -6.1290    -0.7050     3.3470 ho         1 5NG       0.451500
    117 H401        -2.3930    -2.4500     3.1450 hn         1 5NG       0.351000
    118 H411        -2.0830    -4.2950     4.4830 h1         1 5NG       0.033950
    119 H412        -3.8130    -4.5640     4.6220 h1         1 5NG       0.033950
    120 H421        -3.9330    -5.4480     2.3440 hc         1 5NG       0.103450
    121 H422        -2.3030    -4.9070     1.9960 hc         1 5NG       0.103450
    122 H451        -1.6360    -6.9160     1.3630 hn         1 5NG       0.352500
    123 H461        -1.6980    -9.2510     3.1260 h1         1 5NG       0.040450
    124 H462        -1.0490    -9.1180     1.4940 h1         1 5NG       0.040450
    125 H471         0.8500    -7.6670     2.5260 h1         1 5NG       0.098450
    126 H472         0.2870    -8.2350     4.0890 h1         1 5NG       0.098450
    127 H501         2.7380    -9.0130    -0.6590 h1         1 5NG       0.098450
    128 H502         2.3040    -8.0430     0.7410 h1         1 5NG       0.098450
    129 H511         3.9790    -9.4540     2.0980 h1         1 5NG       0.040450
    130 H512         4.5320   -10.1350     0.5730 h1         1 5NG       0.040450
    131 H521         4.5160    -7.3130     0.2920 hn         1 5NG       0.352500
    132 H551         6.2630    -5.9980     0.4440 hc         1 5NG       0.103450
    133 H552         6.1800    -5.9000     2.1900 hc         1 5NG       0.103450
    134 H561         8.5040    -6.9060     2.3170 h1         1 5NG       0.033950
    135 H562         8.5900    -6.8610     0.5700 h1         1 5NG       0.033950
    136 H571         8.7210    -4.6390     2.4470 hn         1 5NG       0.351000
    137 H601         9.6540    -2.3610     0.1300 h1         1 5NG       0.076700
    138 H611         8.8340    -2.4250     2.7930 ho         1 5NG       0.451500
    139 H631         6.8000    -2.7050    -1.1070 hc         1 5NG       0.049367
    140 H632         6.4120    -1.0040    -0.9020 hc         1 5NG       0.049367
    141 H633         8.0210    -1.4780    -1.4380 hc         1 5NG       0.049367
    142 H641         6.7340    -2.3320     2.6230 hc         1 5NG       0.049367
    143 H642         5.6300    -1.6220     1.4630 hc         1 5NG       0.049367
    144 H643         6.1550    -3.2820     1.2570 hc         1 5NG       0.049367
    145 H651         8.4390    -0.3740     2.1360 h1         1 5NG      -0.000800
    146 H652         8.8780    -0.0300     0.4620 h1         1 5NG      -0.000800
    147 H751         2.8550     0.3740    -1.3170 h1         1 5NG       0.019450
    148 H752         3.5540    -0.9370    -0.3760 h1         1 5NG       0.019450
    149 H761         1.9000    -0.5800     1.4190 h1         1 5NG       0.111200
    150 H781        -1.1360     0.6620     0.1640 h2         1 5NG       0.078200
    151 H791         0.7730    -0.0550    -2.0950 h1         1 5NG       0.024700
    152 H801        -1.6660    -0.3370    -2.1340 ho         1 5NG       0.517000
    153 H811         1.5000    -2.0050    -0.8750 h1         1 5NG       0.044200
    154 H881         1.3980     3.2110    -0.5680 h5         1 5NG       0.122800
    155 H921        -1.4940     6.0990    -3.2830 hn         1 5NG       0.500500
    156 H922        -2.9950     5.8180    -4.0870 hn         1 5NG       0.500500
    157 H941        -4.1420     1.5690    -3.3130 h5         1 5NG       0.052600
    158 C15         -7.1590     5.2380    -1.9160 c5         1 5NG       0.116800
@<TRIPOS>BOND
     1     1    17 1   
     2     1    18 1   
     3     1    25 1   
     4     1    97 1   
     5     2    18 1   
     6     2    20 1   
     7     2    98 1   
     8     2   158 1   
     9     3     4 1   
    10     3    99 1   
    11     3   100 1   
    12     3   101 1   
    13     4     5 1   
    14     4     6 1   
    15     4    35 1   
    16     5   102 1   
    17     5   103 1   
    18     5   104 1   
    19     6     7 1   
    20     6   105 1   
    21     6   106 1   
    22     7     8 1   
    23     8     9 1   
    24     8    10 1   
    25     8    11 1   
    26    11    12 1   
    27    12    13 1   
    28    12    14 1   
    29    12    15 1   
    30    15    16 1   
    31    16   107 1   
    32    16   108 1   
    33    16   158 1   
    34    17   158 1   
    35    18    19 1   
    36    18   109 1   
    37    19   110 1   
    38    20    21 1   
    39    21    22 1   
    40    21    23 1   
    41    21    24 1   
    42    25    26 1   
    43    25    34 1   
    44    26    27 2   
    45    26   111 1   
    46    27    28 1   
    47    28    29 ar  
    48    28    34 ar  
    49    29    30 1   
    50    29    31 ar  
    51    30   112 1   
    52    30   113 1   
    53    31    32 ar  
    54    32    33 ar  
    55    32   114 1   
    56    33    34 ar  
    57    35    36 1   
    58    35    37 1   
    59    35   115 1   
    60    36   116 1   
    61    37    38 2   
    62    37    39 1   
    63    39    40 1   
    64    39   117 1   
    65    40    41 1   
    66    40   118 1   
    67    40   119 1   
    68    41    42 1   
    69    41   120 1   
    70    41   121 1   
    71    42    43 2   
    72    42    44 1   
    73    44    45 1   
    74    44   122 1   
    75    45    46 1   
    76    45   123 1   
    77    45   124 1   
    78    46    47 1   
    79    46   125 1   
    80    46   126 1   
    81    47    48 1   
    82    48    49 1   
    83    49    50 1   
    84    49   127 1   
    85    49   128 1   
    86    50    51 1   
    87    50   129 1   
    88    50   130 1   
    89    51    52 1   
    90    51   131 1   
    91    52    53 2   
    92    52    54 1   
    93    54    55 1   
    94    54   132 1   
    95    54   133 1   
    96    55    56 1   
    97    55   134 1   
    98    55   135 1   
    99    56    57 1   
   100    56   136 1   
   101    57    58 2   
   102    57    59 1   
   103    59    60 1   
   104    59    61 1   
   105    59   137 1   
   106    60   138 1   
   107    61    62 1   
   108    61    63 1   
   109    61    64 1   
   110    62   139 1   
   111    62   140 1   
   112    62   141 1   
   113    63   142 1   
   114    63   143 1   
   115    63   144 1   
   116    64    65 1   
   117    64   145 1   
   118    64   146 1   
   119    65    66 1   
   120    66    67 1   
   121    66    68 1   
   122    66    69 1   
   123    69    70 1   
   124    70    71 1   
   125    70    72 1   
   126    70    73 1   
   127    73    74 1   
   128    74    75 1   
   129    74   147 1   
   130    74   148 1   
   131    75    76 1   
   132    75    80 1   
   133    75   149 1   
   134    76    77 1   
   135    77    78 1   
   136    77    86 1   
   137    77   150 1   
   138    78    79 1   
   139    78    80 1   
   140    78   151 1   
   141    79   152 1   
   142    80    81 1   
   143    80   153 1   
   144    81    82 1   
   145    82    83 1   
   146    82    84 1   
   147    82    85 1   
   148    86    87 1   
   149    86    95 1   
   150    87    88 2   
   151    87   154 1   
   152    88    89 1   
   153    89    90 ar  
   154    89    95 ar  
   155    90    91 1   
   156    90    92 ar  
   157    91   155 1   
   158    91   156 1   
   159    92    93 ar  
   160    93    94 ar  
   161    93   157 1   
   162    94    95 ar  
   163    96   158 1   
@<TRIPOS>SUBSTRUCTURE
     1 5NG         1 TEMP              0 ****  ****    0 ROOT
