@<TRIPOS>MOLECULE
5SI
   48    50     1     0     0
SMALL
abcg2


@<TRIPOS>ATOM
      1 N1          14.9390   -12.2360   -34.3790 n          1 5SI      -0.174000
      2 C2          14.2700   -13.0840   -33.5350 cc         1 5SI       0.011600
      3 C3          14.4750   -14.4140   -33.5480 cd         1 5SI      -0.252200
      4 C4          15.4150   -14.9700   -34.4560 ca         1 5SI       0.023200
      5 C5          16.1230   -14.0960   -35.3030 ca         1 5SI      -0.136600
      6 C6          15.8830   -12.6660   -35.2600 cs         1 5SI       0.388000
      7 PA          10.8110   -11.1810   -30.8860 p5         1 5SI       1.444800
      8 PB          13.3250   -11.1290   -29.2690 p5         1 5SI       1.541800
      9 PG          12.9620   -12.1910   -26.4910 p5         1 5SI       1.363900
     10 C1          14.6240   -10.7780   -34.3250 c5         1 5SI       0.321700
     11 O1A         10.3980   -12.4160   -30.1510 o          1 5SI      -0.856000
     12 O1B         13.6740   -12.4800   -29.8270 o          1 5SI      -0.913000
     13 O1G         14.4830   -12.1310   -26.4340 o          1 5SI      -0.908500
     14 C7          13.7660   -10.3210   -35.5100 c5         1 5SI      -0.117400
     15 O2A          9.8360   -10.0850   -31.1970 o          1 5SI      -0.856000
     16 O2B         14.3760   -10.0550   -29.2560 o          1 5SI      -0.913000
     17 O2G         12.3790   -13.5580   -26.8190 o          1 5SI      -0.908500
     18 C8          12.8070    -9.3250   -34.8780 c5         1 5SI       0.127300
     19 O3          13.4340    -8.0650   -34.8550 oh         1 5SI      -0.732000
     20 S36         16.7220   -11.5860   -36.2390 s          1 5SI      -0.811400
     21 C37         15.6530   -16.3540   -34.5160 ca         1 5SI      -0.119000
     22 C38         16.5670   -16.8860   -35.3940 ca         1 5SI      -0.108300
     23 C39         17.2720   -16.0060   -36.2400 ca         1 5SI      -0.169000
     24 O3A         12.0890   -10.4590   -30.1820 os         1 5SI      -0.720800
     25 O3B         12.5560   -11.2000   -27.8640 os         1 5SI      -0.728800
     26 O3G         12.2400   -11.4410   -25.3790 o          1 5SI      -0.908500
     27 C9          12.6310    -9.9210   -33.4820 c5         1 5SI       0.090300
     28 O4          13.9060   -10.4850   -33.1710 os         1 5SI      -0.363000
     29 C40         17.0570   -14.6530   -36.1980 ca         1 5SI      -0.061000
     30 C41         16.8240   -18.3600   -35.4630 c3         1 5SI      -0.025800
     31 C10         11.5050   -10.9470   -33.4710 c3         1 5SI       0.232600
     32 O5          11.4530   -11.7360   -32.3110 os         1 5SI      -0.572400
     33 H2          13.5780   -12.6300   -32.8460 h4         1 5SI       0.327000
     34 H3          13.9260   -15.0450   -32.8640 ha         1 5SI       0.235000
     35 H1          15.5910   -10.2720   -34.2990 h2         1 5SI       0.115700
     36 H6          14.3610    -9.8810   -36.3060 hc         1 5SI       0.061200
     37 H2'A        13.2160   -11.1620   -35.9360 hc         1 5SI       0.061200
     38 H7          11.8530    -9.2880   -35.4190 h1         1 5SI       0.024700
     39 HO3         12.8590    -7.4440   -34.3970 ho         1 5SI       0.502000
     40 H37         15.0950   -17.0050   -33.8520 ha         1 5SI       0.112000
     41 H39         17.9950   -16.4080   -36.9400 ha         1 5SI       0.073000
     42 H4          12.4300    -9.1550   -32.7280 h1         1 5SI       0.134700
     43 H40         17.6060   -13.9960   -36.8590 ha         1 5SI       0.129000
     44 H41         16.6460   -18.7410   -36.4700 hc         1 5SI       0.018367
     45 H41A        17.8630   -18.5860   -35.2180 hc         1 5SI       0.018367
     46 H41B        16.1870   -18.9120   -34.7750 hc         1 5SI       0.018367
     47 H5          10.5670   -10.4050   -33.6330 h1         1 5SI      -0.009300
     48 H5'A        11.6210   -11.6380   -34.3130 h1         1 5SI      -0.009300
@<TRIPOS>BOND
     1     1     2 1   
     2     1     6 1   
     3     1    10 1   
     4     2     3 2   
     5     2    33 1   
     6     3     4 1   
     7     3    34 1   
     8     4     5 ar  
     9     4    21 ar  
    10     5     6 1   
    11     5    29 ar  
    12     6    20 2   
    13     7    11 1   
    14     7    15 1   
    15     7    24 1   
    16     7    32 1   
    17     8    12 1   
    18     8    16 1   
    19     8    24 1   
    20     8    25 1   
    21     9    13 1   
    22     9    17 1   
    23     9    25 1   
    24     9    26 1   
    25    10    14 1   
    26    10    28 1   
    27    10    35 1   
    28    14    18 1   
    29    14    36 1   
    30    14    37 1   
    31    18    19 1   
    32    18    27 1   
    33    18    38 1   
    34    19    39 1   
    35    21    22 ar  
    36    21    40 1   
    37    22    23 ar  
    38    22    30 1   
    39    23    29 ar  
    40    23    41 1   
    41    27    28 1   
    42    27    31 1   
    43    27    42 1   
    44    29    43 1   
    45    30    44 1   
    46    30    45 1   
    47    30    46 1   
    48    31    32 1   
    49    31    47 1   
    50    31    48 1   
@<TRIPOS>SUBSTRUCTURE
     1 5SI         1 TEMP              0 ****  ****    0 ROOT
