@<TRIPOS>MOLECULE
5UA
   33    35     1     0     0
SMALL
abcg2


@<TRIPOS>ATOM
      1 OP1        -14.0780    68.0330    39.6700 o          1 5UA      -0.717000
      2 O5         -16.1920    67.6590    40.3800 os         1 5UA      -0.527100
      3 C5         -15.8430    67.9700    41.7020 c3         1 5UA       0.189600
      4 C4         -15.7250    66.7490    42.5940 c5         1 5UA       0.152300
      5 O4         -16.9840    66.0780    42.6850 os         1 5UA      -0.455000
      6 C1         -16.8020    64.7040    42.4640 c5         1 5UA       0.330300
      7 N9         -18.0290    64.1290    41.9730 na         1 5UA      -0.276300
      8 C8         -18.8550    63.3390    42.7280 cc         1 5UA       0.402700
      9 N7         -19.9380    62.9720    42.1160 nd         1 5UA      -0.576100
     10 C7         -19.8370    63.5600    40.8820 ca         1 5UA      -0.115600
     11 C6         -20.6900    63.5570    39.7620 ca         1 5UA       0.430900
     12 N6         -21.8450    62.8880    39.7410 nv         1 5UA      -1.080900
     13 N1         -20.3110    64.2450    38.6810 nb         1 5UA      -0.313000
     14 C2         -19.1480    64.8940    38.7080 ca         1 5UA       0.174900
     15 N3         -18.2720    64.9690    39.6920 nb         1 5UA      -0.137000
     16 C9         -18.6610    64.2870    40.7670 ca         1 5UA       0.146500
     17 C3         -14.7050    65.6900    42.1440 c5         1 5UA       0.132300
     18 C11        -15.5930    64.6050    41.5500 c5         1 5UA      -0.156400
     19 O3         -14.0290    65.2430    43.3030 oh         1 5UA      -0.742000
     20 C10        -15.2220    67.6670    39.3720 c          1 5UA       0.816100
     21 OP3        -15.6790    67.2970    38.2870 o          1 5UA      -0.717000
     22 H5'1       -14.9040    68.5260    41.7580 h1         1 5UA       0.036200
     23 H5'2       -16.6260    68.6190    42.1100 h1         1 5UA       0.036200
     24 H4         -15.4380    67.1120    43.5890 h1         1 5UA       0.047700
     25 H3         -14.0010    66.0950    41.4120 h1         1 5UA       0.106700
     26 H1         -16.5980    64.1810    43.4070 h2         1 5UA       0.039700
     27 H2'1       -15.1360    63.6150    41.5600 hc         1 5UA       0.087200
     28 H2'2       -15.8610    64.8530    40.5240 hc         1 5UA       0.087200
     29 H8         -18.5840    63.0660    43.7390 h5         1 5UA       0.054800
     30 H61N       -22.1970    62.4430    40.5710 hn         1 5UA       0.493500
     31 H62N       -22.4670    62.9850    38.9560 hn         1 5UA       0.493500
     32 H2         -18.8930    65.4310    37.8010 h5         1 5UA       0.062100
     33 HO3        -13.4290    64.5360    43.0440 ho         1 5UA       0.493000
@<TRIPOS>BOND
     1     1    20 1   
     2     2     3 1   
     3     2    20 1   
     4     3     4 1   
     5     3    22 1   
     6     3    23 1   
     7     4     5 1   
     8     4    17 1   
     9     4    24 1   
    10     5     6 1   
    11     6     7 1   
    12     6    18 1   
    13     6    26 1   
    14     7     8 1   
    15     7    16 1   
    16     8     9 2   
    17     8    29 1   
    18     9    10 1   
    19    10    11 ar  
    20    10    16 ar  
    21    11    12 1   
    22    11    13 ar  
    23    12    30 1   
    24    12    31 1   
    25    13    14 ar  
    26    14    15 ar  
    27    14    32 1   
    28    15    16 ar  
    29    17    18 1   
    30    17    19 1   
    31    17    25 1   
    32    18    27 1   
    33    18    28 1   
    34    19    33 1   
    35    20    21 1   
@<TRIPOS>SUBSTRUCTURE
     1 5UA         1 TEMP              0 ****  ****    0 ROOT
