@<TRIPOS>MOLECULE
20T
   67    71     1     0     0
SMALL
abcg2


@<TRIPOS>ATOM
      1 C1          10.1950    -2.4620    49.2140 ca         1 20T      -0.141000
      2 C2          10.7050    -1.2140    48.8960 ca         1 20T      -0.025000
      3 C3          10.3990    -0.6250    47.6730 ca         1 20T      -0.219300
      4 C4           9.5950    -1.2870    46.7580 ca         1 20T       0.038000
      5 C5           9.1000    -2.5400    47.0900 ca         1 20T      -0.260500
      6 C6           9.3790    -3.1310    48.3140 ca         1 20T       0.009000
      7 S7           8.0340    -3.3940    45.9490 sy         1 20T       1.007000
      8 O8           7.1070    -4.1960    46.7380 o          1 20T      -0.522000
      9 O9           7.5190    -2.4130    45.0010 o          1 20T      -0.522000
     10 C10          9.1140    -4.4970    45.0780 ca         1 20T      -0.263500
     11 C11          9.4410    -5.7270    45.6390 ca         1 20T      -0.015500
     12 C12         10.2860    -6.5790    44.9410 ca         1 20T      -0.111500
     13 C13         10.7860    -6.2230    43.6930 ca         1 20T      -0.036300
     14 C14         10.4230    -4.9970    43.1430 ca         1 20T      -0.111500
     15 C15          9.5960    -4.1290    43.8300 ca         1 20T      -0.015500
     16 C16         11.7540    -7.1300    42.9750 c3         1 20T       0.150300
     17 N17         11.4350    -7.3430    41.5870 ns         1 20T      -0.514900
     18 C18         10.3680    -8.0760    41.2220 c          1 20T       0.629700
     19 O19          9.5400    -8.4760    42.0260 o          1 20T      -0.603100
     20 C20         10.2370    -8.3850    39.7730 ca         1 20T      -0.267600
     21 C21         11.3230    -8.6050    38.9390 ca         1 20T       0.024000
     22 C22         11.0480    -8.9940    37.6320 ca         1 20T      -0.289900
     23 C23         11.7770    -9.3560    36.4680 cc         1 20T       0.341800
     24 N24         10.9590    -9.6700    35.5000 nd         1 20T      -0.476100
     25 N25          9.7010    -9.5560    35.9670 na         1 20T      -0.030100
     26 C26          9.7040    -9.1480    37.2550 ca         1 20T       0.408500
     27 N27          8.6530    -8.9340    38.0380 nb         1 20T      -0.663000
     28 C28          8.9360    -8.5700    39.2660 ca         1 20T       0.423900
     29 C29          8.6160    -9.8140    35.0290 c5         1 20T       0.294300
     30 C31          7.2360    -9.9110    35.6800 c5         1 20T       0.069300
     31 C33          6.7890    -8.4440    35.6410 c5         1 20T       0.171300
     32 C35          7.4180    -7.9250    34.3470 c5         1 20T       0.115300
     33 O37          8.5420    -8.7800    34.0990 os         1 20T      -0.438000
     34 C38          7.9450    -6.4960    34.4290 c3         1 20T       0.255600
     35 O39          6.9760    -5.5260    34.7110 os         1 20T      -0.568400
     36 P40          6.2210    -4.6710    33.4100 p5         1 20T       1.261900
     37 O41          7.3770    -3.9850    32.6860 o          1 20T      -0.905167
     38 O42          5.4860    -5.7000    32.5520 o          1 20T      -0.905167
     39 O43          5.3170    -3.7410    34.2050 o          1 20T      -0.905167
     40 O44          5.4050    -8.2550    35.6400 oh         1 20T      -0.636000
     41 O45          6.3860   -10.6680    34.8600 oh         1 20T      -0.671000
     42 C46         10.9430     0.7430    47.3890 c3         1 20T       0.356300
     43 F47         10.4940     1.6500    48.2730 f          1 20T      -0.112667
     44 F48         12.2800     0.7580    47.4800 f          1 20T      -0.112667
     45 F49         10.6160     1.1790    46.1690 f          1 20T      -0.112667
     46 H1          10.4280    -2.9130    50.1680 ha         1 20T       0.119000
     47 H2          11.3320    -0.7020    49.6150 ha         1 20T       0.123000
     48 H3           9.3520    -0.8420    45.8020 ha         1 20T       0.159000
     49 H4           8.9780    -4.1020    48.5710 ha         1 20T       0.136000
     50 H5           9.0540    -6.0230    46.6040 ha         1 20T       0.132500
     51 H6          10.5520    -7.5340    45.3760 ha         1 20T       0.121500
     52 H7          10.8000    -4.7090    42.1690 ha         1 20T       0.121500
     53 H8           9.3350    -3.1730    43.3930 ha         1 20T       0.132500
     54 H9          11.8180    -8.0880    43.4960 h1         1 20T       0.049700
     55 H10         12.7520    -6.6900    43.0120 h1         1 20T       0.049700
     56 H11         12.0360    -6.9340    40.8900 hn         1 20T       0.325500
     57 H12         12.3460    -8.5070    39.2800 ha         1 20T       0.105000
     58 H13         12.8460    -9.3820    36.3220 h4         1 20T       0.038800
     59 H14          8.0880    -8.4000    39.9180 h4         1 20T       0.039100
     60 H15          8.8740   -10.7480    34.5220 h2         1 20T       0.069700
     61 H16          7.2730   -10.3080    36.7000 h1         1 20T       0.047700
     62 H17          7.2580    -7.9450    36.5000 h1         1 20T       0.061700
     63 H18          6.7060    -8.0110    33.5230 h1         1 20T       0.132700
     64 H19          8.5040    -6.2660    33.5140 h1         1 20T      -0.006800
     65 H20          8.6860    -6.4840    35.2440 h1         1 20T      -0.006800
     66 H23          5.0700    -8.4620    36.5170 ho         1 20T       0.475000
     67 H24          6.6260   -11.5960    34.9500 ho         1 20T       0.470000
@<TRIPOS>BOND
     1     1     2 ar  
     2     1     6 ar  
     3     1    46 1   
     4     2     3 ar  
     5     2    47 1   
     6     3     4 ar  
     7     3    42 1   
     8     4     5 ar  
     9     4    48 1   
    10     5     6 ar  
    11     5     7 1   
    12     6    49 1   
    13     7     8 2   
    14     7     9 2   
    15     7    10 1   
    16    10    11 ar  
    17    10    15 ar  
    18    11    12 ar  
    19    11    50 1   
    20    12    13 ar  
    21    12    51 1   
    22    13    14 ar  
    23    13    16 1   
    24    14    15 ar  
    25    14    52 1   
    26    15    53 1   
    27    16    17 1   
    28    16    54 1   
    29    16    55 1   
    30    17    18 1   
    31    17    56 1   
    32    18    19 2   
    33    18    20 1   
    34    20    21 ar  
    35    20    28 ar  
    36    21    22 ar  
    37    21    57 1   
    38    22    23 1   
    39    22    26 ar  
    40    23    24 2   
    41    23    58 1   
    42    24    25 1   
    43    25    26 1   
    44    25    29 1   
    45    26    27 ar  
    46    27    28 ar  
    47    28    59 1   
    48    29    30 1   
    49    29    33 1   
    50    29    60 1   
    51    30    31 1   
    52    30    41 1   
    53    30    61 1   
    54    31    32 1   
    55    31    40 1   
    56    31    62 1   
    57    32    33 1   
    58    32    34 1   
    59    32    63 1   
    60    34    35 1   
    61    34    64 1   
    62    34    65 1   
    63    35    36 1   
    64    36    37 1   
    65    36    38 1   
    66    36    39 1   
    67    40    66 1   
    68    41    67 1   
    69    42    43 1   
    70    42    44 1   
    71    42    45 1   
@<TRIPOS>SUBSTRUCTURE
     1 20T         1 TEMP              0 ****  ****    0 ROOT
