@<TRIPOS>MOLECULE
2AT
   42    43     1     0     0
SMALL
abcg2


@<TRIPOS>ATOM
      1 P            2.5710     0.5030    -4.3190 p5         1 2AT       1.273900
      2 OP1          3.3970     1.5590    -5.0340 o          1 2AT      -0.921500
      3 OP2          1.1300     0.9160    -3.9960 o          1 2AT      -0.921500
      4 O5           3.3470     0.4570    -2.7880 os         1 2AT      -0.560400
      5 C5           2.8250    -0.4250    -1.8520 c3         1 2AT       0.245600
      6 C4           3.0640     0.0930    -0.4420 c5         1 2AT       0.145300
      7 O4           2.5850     1.4390    -0.2950 os         1 2AT      -0.414000
      8 C1           1.5240     1.4840     0.6090 c5         1 2AT       0.345700
      9 N1           0.5370     2.4520     0.1520 n          1 2AT      -0.304000
     10 C6           0.1450     2.4680    -1.1640 cc         1 2AT       0.021600
     11 C2           0.0130     3.3360     1.0690 c          1 2AT       0.617000
     12 O2           0.3300     3.3650     2.2410 o          1 2AT      -0.604000
     13 N3          -0.9160     4.2000     0.5500 ns         1 2AT      -0.474500
     14 C8          -1.3720     4.2820    -0.7540 c          1 2AT       0.583200
     15 O1          -2.2080     5.1100    -1.0640 o          1 2AT      -0.587000
     16 C7          -0.7680     3.3240    -1.6580 cd         1 2AT      -0.280400
     17 C5M         -1.1670     3.3380    -3.0980 c3         1 2AT      -0.032900
     18 C9           1.0000     0.0520     0.6860 c5         1 2AT       0.062300
     19 O6           0.2690    -0.1350     1.8580 os         1 2AT      -0.447000
     20 CB          -0.5720    -1.2780     1.8280 c3         1 2AT       0.185800
     21 CC          -1.2280    -1.4190     3.1600 c2         1 2AT      -0.198200
     22 CD          -2.5420    -1.4920     3.3280 c2         1 2AT      -0.325000
     23 C3           2.3120    -0.7340     0.5940 c5         1 2AT       0.099300
     24 O3           3.0080    -0.6970     1.8150 oh         1 2AT      -0.723000
     25 OP3          2.6910    -0.9170    -4.8610 o          1 2AT      -0.921500
     26 H5           1.7470    -0.5890    -1.9950 h1         1 2AT      -0.006300
     27 H5'          3.2930    -1.4210    -1.9050 h1         1 2AT      -0.006300
     28 H4           4.1380     0.0950    -0.2290 h1         1 2AT       0.075700
     29 H1           1.8500     1.8150     1.5970 h2         1 2AT       0.087700
     30 H6           0.6290     1.7550    -1.8250 h4         1 2AT       0.312000
     31 HN3         -1.3120     4.8550     1.2130 hn         1 2AT       0.311500
     32 H71         -2.2250     3.0970    -3.2220 hc         1 2AT       0.057700
     33 H72         -0.5800     2.6150    -3.6600 hc         1 2AT       0.057700
     34 H73         -1.0100     4.3230    -3.5400 hc         1 2AT       0.057700
     35 H2           0.3850    -0.1640    -0.2010 h1         1 2AT       0.087700
     36 HB'1        -1.3230    -1.1800     1.0340 h1         1 2AT       0.034200
     37 HB'2         0.0150    -2.1800     1.6100 h1         1 2AT       0.034200
     38 HC          -0.5660    -1.4960     4.0170 ha         1 2AT       0.169000
     39 HD'1        -2.9810    -1.6300     4.3070 ha         1 2AT       0.156500
     40 HD'2        -3.2280    -1.4200     2.4920 ha         1 2AT       0.156500
     41 H3           2.1590    -1.7650     0.2490 h1         1 2AT       0.054700
     42 HO3          2.3960    -0.9290     2.5220 ho         1 2AT       0.494000
@<TRIPOS>BOND
     1     1     2 1   
     2     1     3 1   
     3     1     4 1   
     4     1    25 1   
     5     4     5 1   
     6     5     6 1   
     7     5    26 1   
     8     5    27 1   
     9     6     7 1   
    10     6    23 1   
    11     6    28 1   
    12     7     8 1   
    13     8     9 1   
    14     8    18 1   
    15     8    29 1   
    16     9    10 1   
    17     9    11 1   
    18    10    16 2   
    19    10    30 1   
    20    11    12 2   
    21    11    13 1   
    22    13    14 1   
    23    13    31 1   
    24    14    15 2   
    25    14    16 1   
    26    16    17 1   
    27    17    32 1   
    28    17    33 1   
    29    17    34 1   
    30    18    19 1   
    31    18    23 1   
    32    18    35 1   
    33    19    20 1   
    34    20    21 1   
    35    20    36 1   
    36    20    37 1   
    37    21    22 2   
    38    21    38 1   
    39    22    39 1   
    40    22    40 1   
    41    23    24 1   
    42    23    41 1   
    43    24    42 1   
@<TRIPOS>SUBSTRUCTURE
     1 2AT         1 TEMP              0 ****  ****    0 ROOT
