@<TRIPOS>MOLECULE
2B0
   26    26     1     0     0
SMALL
abcg2


@<TRIPOS>ATOM
      1 OAE          3.6230    -0.9920     0.5980 o          1 2B0      -0.929500
      2 PAP          3.3250     0.2870    -0.1950 p5         1 2B0       1.291500
      3 OAF          3.6610     1.5660     0.5840 o          1 2B0      -0.929500
      4 OAC          3.9270     0.2700    -1.6070 o          1 2B0      -0.929500
      5 CAJ          1.4910     0.3160    -0.4750 c3         1 2B0      -0.362400
      6 CAI          0.6330     0.3290     0.8000 c3         1 2B0      -0.011100
      7 CAN         -0.8350     0.3990     0.4830 ca         1 2B0       0.031700
      8 CAH         -1.4500     1.6420     0.4810 ca         1 2B0       0.269900
      9 NAK         -2.7310     1.8550     0.1630 nb         1 2B0      -0.654000
     10 CAL         -3.4990     0.8310    -0.1890 ca         1 2B0       0.252300
     11 CAA         -4.9290     1.0870    -0.5590 c3         1 2B0      -0.110400
     12 CAM         -2.9800    -0.4760    -0.2160 ca         1 2B0       0.108100
     13 OAD         -3.8590    -1.4310    -0.6100 oh         1 2B0      -0.561100
     14 CAO         -1.6410    -0.7150     0.1430 ca         1 2B0      -0.248600
     15 C1          -1.1670    -2.1050     0.2290 c          1 2B0       0.556500
     16 H3           1.2580     1.2030    -1.0700 hc         1 2B0       0.014700
     17 H4           1.2270    -0.5520    -1.0820 hc         1 2B0       0.014700
     18 H5           0.8590    -0.5490     1.3980 hc         1 2B0       0.063700
     19 H6           0.8920     1.2090     1.3900 hc         1 2B0       0.063700
     20 H7          -0.8720     2.5170     0.7520 h4         1 2B0       0.033100
     21 H8          -5.1320     0.7680    -1.5820 hc         1 2B0       0.030033
     22 H9          -5.6090     0.5300     0.0870 hc         1 2B0       0.030033
     23 H10         -5.1430     2.1490    -0.4690 hc         1 2B0       0.030033
     24 H11         -3.4430    -2.2880    -0.7440 ho         1 2B0       0.457000
     25 H12         -1.9590    -2.8740     0.2160 h4         1 2B0      -0.073800
     26 O2          -0.0140    -2.4700     0.3420 o          1 2B0      -0.435100
@<TRIPOS>BOND
     1     1     2 1   
     2     2     3 1   
     3     2     4 1   
     4     2     5 1   
     5     5     6 1   
     6     5    16 1   
     7     5    17 1   
     8     6     7 1   
     9     6    18 1   
    10     6    19 1   
    11     7     8 ar  
    12     7    14 ar  
    13     8     9 ar  
    14     8    20 1   
    15     9    10 ar  
    16    10    11 1   
    17    10    12 ar  
    18    11    21 1   
    19    11    22 1   
    20    11    23 1   
    21    12    13 1   
    22    12    14 ar  
    23    13    24 1   
    24    14    15 1   
    25    15    25 1   
    26    15    26 2   
@<TRIPOS>SUBSTRUCTURE
     1 2B0         1 TEMP              0 ****  ****    0 ROOT
