@<TRIPOS>MOLECULE
2FI
   33    35     1     0     0
SMALL
abcg2


@<TRIPOS>ATOM
      1 O3P         35.8910    -9.0350     6.5850 o          1 2FI      -0.905167
      2 P           35.9340   -10.1060     5.5050 p5         1 2FI       1.275900
      3 O1P         35.8150    -9.5970     4.0750 o          1 2FI      -0.905167
      4 O2P         35.0840   -11.3510     5.7890 o          1 2FI      -0.905167
      5 O5          37.5400   -10.7300     5.5360 os         1 2FI      -0.593400
      6 C6          33.4680   -14.8180    10.7630 c          1 2FI       0.502500
      7 N1          34.1450   -15.1190    11.9520 ns         1 2FI      -0.439400
      8 C2          35.4150   -14.7630    12.2550 cc         1 2FI       0.441800
      9 N3          36.1950   -14.0880    11.4760 nd         1 2FI      -0.588100
     10 C4          35.6050   -13.7620    10.3070 cd         1 2FI       0.023400
     11 C5          34.3240   -14.0700     9.8950 cc         1 2FI       0.151500
     12 N7          34.0880   -13.5620     8.6500 nc         1 2FI      -0.643000
     13 C8          35.1970   -12.9630     8.3090 cd         1 2FI       0.496400
     14 N9          36.1510   -13.0460     9.2890 na         1 2FI      -0.164500
     15 F1          37.8660   -14.8100     8.3660 f          1 2FI      -0.253000
     16 C7          38.4440   -13.5620     8.4840 c5         1 2FI       0.141300
     17 C10         38.4780   -10.3880     6.4970 c3         1 2FI       0.268600
     18 C9          38.6500   -11.4130     7.6050 c5         1 2FI       0.102300
     19 O4          37.5730   -11.3730     8.5430 os         1 2FI      -0.393000
     20 C1          37.5170   -12.5810     9.2380 c5         1 2FI       0.288300
     21 C3          38.6830   -12.8740     7.1620 c5         1 2FI       0.109300
     22 O3          39.8940   -13.2850     6.5940 oh         1 2FI      -0.741000
     23 H8          35.3390   -12.4090     7.3750 h5         1 2FI       0.192100
     24 H2          39.3850   -13.6800     9.0280 h1         1 2FI       0.049700
     25 H5          39.4660   -10.3070     6.0210 h1         1 2FI       0.006200
     26 H5'A        38.2770    -9.4130     6.9560 h1         1 2FI       0.006200
     27 H4          39.5920   -11.1760     8.1220 h1         1 2FI       0.004700
     28 H1          37.8430   -12.4590    10.2750 h2         1 2FI       0.066700
     29 H3          37.8310   -13.0600     6.4940 h1         1 2FI       0.120700
     30 HO3         39.9250   -12.9760     5.6830 ho         1 2FI       0.525000
     31 HN1         33.6320   -15.6480    12.6460 hn         1 2FI       0.298500
     32 O6          32.3200   -15.1780    10.5780 o          1 2FI      -0.557000
     33 H6          35.7690   -15.0840    13.2260 h5         1 2FI       0.019800
@<TRIPOS>BOND
     1     1     2 1   
     2     2     3 1   
     3     2     4 1   
     4     2     5 1   
     5     5    17 1   
     6     6     7 1   
     7     6    11 1   
     8     6    32 2   
     9     7     8 1   
    10     7    31 1   
    11     8     9 2   
    12     8    33 1   
    13     9    10 1   
    14    10    11 2   
    15    10    14 1   
    16    11    12 1   
    17    12    13 2   
    18    13    14 1   
    19    13    23 1   
    20    14    20 1   
    21    15    16 1   
    22    16    20 1   
    23    16    21 1   
    24    16    24 1   
    25    17    18 1   
    26    17    25 1   
    27    17    26 1   
    28    18    19 1   
    29    18    21 1   
    30    18    27 1   
    31    19    20 1   
    32    20    28 1   
    33    21    22 1   
    34    21    29 1   
    35    22    30 1   
@<TRIPOS>SUBSTRUCTURE
     1 2FI         1 TEMP              0 ****  ****    0 ROOT
