@<TRIPOS>MOLECULE
2H9
   43    43     1     0     0
SMALL
abcg2


@<TRIPOS>ATOM
      1 CAM         25.1290    46.4100    43.7970 ca         1 2H9      -0.077000
      2 CAK         26.2560    46.9990    43.2400 ca         1 2H9      -0.140000
      3 CAJ         26.2670    48.3640    42.9700 ca         1 2H9      -0.139000
      4 CAL         25.1480    49.1360    43.2610 ca         1 2H9      -0.140000
      5 CAN         24.0150    48.5450    43.8090 ca         1 2H9      -0.077000
      6 CAY         23.9960    47.1750    44.0770 ca         1 2H9      -0.098600
      7 CAX         22.8040    46.4810    44.6660 c          1 2H9       0.566700
      8 OAD         22.9320    45.4460    45.3290 o          1 2H9      -0.660100
      9 NAR         21.6090    47.0440    44.4200 ns         1 2H9      -0.427900
     10 CBA         20.3430    46.5130    44.8950 c3         1 2H9      -0.052300
     11 CAW         19.3160    47.6720    44.9690 c          1 2H9       0.728000
     12 OAH         19.4260    48.5580    44.0830 o          1 2H9      -0.730500
     13 OAC         18.4620    47.6210    45.8820 o          1 2H9      -0.730500
     14 CAQ         19.8860    45.4200    43.9220 c3         1 2H9       0.235600
     15 OAT         18.7310    44.7640    44.4310 os         1 2H9      -0.578400
     16 PBB         17.9560    43.6520    43.5170 p5         1 2H9       1.378700
     17 OAI         16.9220    43.0300    44.4030 o          1 2H9      -0.876500
     18 OAE         18.9910    42.7620    42.8850 o          1 2H9      -0.876500
     19 N           17.1850    44.6350    42.3830 n7         1 2H9      -0.944500
     20 CA          16.1400    44.0340    41.5410 c3         1 2H9       0.106500
     21 C           16.5030    44.1410    40.0360 c          1 2H9       0.704000
     22 OXT         17.5300    44.7980    39.7270 o          1 2H9      -0.782500
     23 O           15.7250    43.5650    39.2360 o          1 2H9      -0.782500
     24 CB          14.7620    44.6590    41.8210 c3         1 2H9      -0.019400
     25 CG          14.6750    46.1310    41.4430 c3         1 2H9      -0.177400
     26 CD          13.3440    46.8420    41.7480 c          1 2H9       0.707000
     27 OE2         13.3280    48.0890    41.5490 o          1 2H9      -0.803500
     28 OE1         12.3700    46.1590    42.1540 o          1 2H9      -0.803500
     29 H1          25.1130    45.3520    44.0140 ha         1 2H9       0.137000
     30 H2          27.1230    46.3940    43.0150 ha         1 2H9       0.087000
     31 H3          27.1460    48.8240    42.5390 ha         1 2H9       0.075000
     32 H4          25.1560    50.1990    43.0660 ha         1 2H9       0.087000
     33 H5          23.1600    49.1630    44.0440 ha         1 2H9       0.137000
     34 H6          21.5260    47.8600    43.8340 hn         1 2H9       0.330500
     35 H7          20.4830    46.0780    45.8810 h1         1 2H9       0.059700
     36 H9          20.6950    44.7010    43.7920 h1         1 2H9       0.012700
     37 H10         19.6760    45.8820    42.9530 h1         1 2H9       0.012700
     38 H12         17.8440    45.0880    41.7570 hn         1 2H9       0.439000
     39 H13         16.0580    42.9660    41.7540 h1         1 2H9       0.003700
     40 H15         14.5490    44.5390    42.8840 hc         1 2H9       0.017200
     41 H16         14.0060    44.0920    41.2800 hc         1 2H9       0.017200
     42 H17         14.8560    46.2530    40.3710 hc         1 2H9       0.038700
     43 H18         15.4680    46.6920    41.9410 hc         1 2H9       0.038700
@<TRIPOS>BOND
     1     1     2 ar  
     2     1     6 ar  
     3     1    29 1   
     4     2     3 ar  
     5     2    30 1   
     6     3     4 ar  
     7     3    31 1   
     8     4     5 ar  
     9     4    32 1   
    10     5     6 ar  
    11     5    33 1   
    12     6     7 1   
    13     7     8 2   
    14     7     9 1   
    15     9    10 1   
    16     9    34 1   
    17    10    11 1   
    18    10    14 1   
    19    10    35 1   
    20    11    12 1   
    21    11    13 1   
    22    14    15 1   
    23    14    36 1   
    24    14    37 1   
    25    15    16 1   
    26    16    17 1   
    27    16    18 1   
    28    16    19 1   
    29    19    20 1   
    30    19    38 1   
    31    20    21 1   
    32    20    24 1   
    33    20    39 1   
    34    21    22 1   
    35    21    23 1   
    36    24    25 1   
    37    24    40 1   
    38    24    41 1   
    39    25    26 1   
    40    25    42 1   
    41    25    43 1   
    42    26    27 1   
    43    26    28 1   
@<TRIPOS>SUBSTRUCTURE
     1 2H9         1 TEMP              0 ****  ****    0 ROOT
