@<TRIPOS>MOLECULE
2IU
   52    55     1     0     0
SMALL
abcg2


@<TRIPOS>ATOM
      1 C10         20.5900   -15.1130    -5.7450 cc         1 2IU      -0.262200
      2 C13         19.5620   -13.4820    -8.7780 ca         1 2IU       0.022000
      3 C15         20.4960   -11.7030    -7.4040 ca         1 2IU      -0.157000
      4 C12         19.8500   -14.3340    -7.7290 ca         1 2IU       0.089100
      5 C14         19.8970   -12.1490    -8.5890 ca         1 2IU      -0.104000
      6 C16         20.7880   -12.5800    -6.3730 ca         1 2IU      -0.143000
      7 N           19.0360   -19.6580    -6.9970 n          1 2IU      -0.294000
      8 C           17.3630   -19.1350    -9.8470 c5         1 2IU       0.184300
      9 O           16.2870   -19.0780   -10.7220 oh         1 2IU      -0.835000
     10 C1          17.0310   -19.7910    -8.5070 c5         1 2IU      -0.150400
     11 C11         20.4580   -13.9260    -6.5390 ca         1 2IU      -0.142800
     12 C2          18.3520   -20.4160    -8.0540 c5         1 2IU       0.327700
     13 C3          18.4960   -20.0400   -10.3430 c5         1 2IU       0.110300
     14 C4          19.4650   -19.4020   -11.3080 c3         1 2IU       0.232600
     15 C5          19.2760   -18.3330    -7.1720 cc         1 2IU       0.070600
     16 C6          19.8730   -17.5380    -6.2510 cd         1 2IU      -0.243200
     17 C7          20.3250   -18.1490    -5.0130 c          1 2IU       0.601200
     18 C8          19.4600   -20.3160    -5.8580 c          1 2IU       0.615000
     19 C9          20.0600   -16.1220    -6.4840 cd         1 2IU       0.095100
     20 N1          20.0760   -19.5060    -4.9400 ns         1 2IU      -0.476500
     21 O1          19.1880   -20.4700    -9.1760 os         1 2IU      -0.451000
     22 O10         18.8380   -12.8600   -11.9570 o          1 2IU      -0.953167
     23 O11         17.5930   -12.5820   -14.1800 o          1 2IU      -0.953167
     24 O12         20.8800   -17.5770    -4.0960 o          1 2IU      -0.588000
     25 O13         19.3060   -21.5020    -5.6680 o          1 2IU      -0.620000
     26 O14         19.6050   -15.6630    -7.6830 os         1 2IU      -0.117200
     27 O2          20.1160   -18.3100   -10.6980 os         1 2IU      -0.614400
     28 O3          20.9150   -17.3880   -12.9500 o          1 2IU      -0.850000
     29 O4          21.2860   -16.0940   -10.7200 o          1 2IU      -0.850000
     30 O5          18.9560   -16.2790   -11.6350 os         1 2IU      -0.747800
     31 O6          17.8630   -17.1040   -13.8470 o          1 2IU      -0.906500
     32 O7          16.4810   -16.7270   -11.6970 o          1 2IU      -0.906500
     33 O8          17.3840   -14.7500   -12.9010 os         1 2IU      -0.736800
     34 O9          19.6350   -14.1360   -14.0460 o          1 2IU      -0.953167
     35 P           20.4430   -16.9630   -11.5960 p5         1 2IU       1.488800
     36 P1          17.6230   -16.2950   -12.6090 p5         1 2IU       1.585800
     37 P2          18.4890   -13.4550   -13.3170 p5         1 2IU       1.367900
     38 H1          21.0180   -15.1920    -4.7620 ha         1 2IU       0.186000
     39 H2          19.1210   -13.8120    -9.7100 ha         1 2IU       0.262000
     40 H3          20.7420   -10.6550    -7.2990 ha         1 2IU       0.062000
     41 H4          19.6960   -11.4450    -9.3850 ha         1 2IU       0.152000
     42 H5          21.2590   -12.2310    -5.4630 ha         1 2IU       0.061000
     43 H6          17.7610   -18.1260    -9.6790 h1         1 2IU       0.095700
     44 H7          16.3250   -18.1810   -11.1680 ho         1 2IU       0.627000
     45 H8          16.6050   -19.1110    -7.7690 hc         1 2IU       0.042200
     46 H9          16.3030   -20.5890    -8.6740 hc         1 2IU       0.042200
     47 H10         18.2000   -21.4120    -7.6420 h2         1 2IU       0.053700
     48 H11         18.0440   -20.9050   -10.8520 h1         1 2IU       0.013700
     49 H12         18.8930   -19.1160   -12.1970 h1         1 2IU       0.035200
     50 H13         20.2030   -20.1420   -11.6390 h1         1 2IU       0.035200
     51 H14         18.9480   -17.9230    -8.1150 h4         1 2IU       0.295000
     52 H15         20.3880   -19.9730    -4.0960 hn         1 2IU       0.303500
@<TRIPOS>BOND
     1     1    11 1   
     2     1    19 2   
     3     1    38 1   
     4     2     4 ar  
     5     2     5 ar  
     6     2    39 1   
     7     3     5 ar  
     8     3     6 ar  
     9     3    40 1   
    10     4    11 ar  
    11     4    26 1   
    12     5    41 1   
    13     6    11 ar  
    14     6    42 1   
    15     7    12 1   
    16     7    15 1   
    17     7    18 1   
    18     8     9 1   
    19     8    10 1   
    20     8    13 1   
    21     8    43 1   
    22     9    44 1   
    23    10    12 1   
    24    10    45 1   
    25    10    46 1   
    26    12    21 1   
    27    12    47 1   
    28    13    14 1   
    29    13    21 1   
    30    13    48 1   
    31    14    27 1   
    32    14    49 1   
    33    14    50 1   
    34    15    16 2   
    35    15    51 1   
    36    16    17 1   
    37    16    19 1   
    38    17    20 1   
    39    17    24 2   
    40    18    20 1   
    41    18    25 2   
    42    19    26 1   
    43    20    52 1   
    44    22    37 1   
    45    23    37 1   
    46    27    35 1   
    47    28    35 1   
    48    29    35 1   
    49    30    35 1   
    50    30    36 1   
    51    31    36 1   
    52    32    36 1   
    53    33    36 1   
    54    33    37 1   
    55    34    37 1   
@<TRIPOS>SUBSTRUCTURE
     1 2IU         1 TEMP              0 ****  ****    0 ROOT
