@<TRIPOS>MOLECULE
2LA
   41    43     1     0     0
SMALL
abcg2


@<TRIPOS>ATOM
      1 P            5.0960     0.4750    27.8600 p5         1 2LA       1.266900
      2 N1          -1.8860     0.9670    22.9870 ns         1 2LA      -0.453400
      3 C2          -2.2460    -0.0460    23.8280 cc         1 2LA       0.668800
      4 N2          -3.4830    -0.5580    23.6790 nv         1 2LA      -1.059200
      5 N3          -1.4360    -0.5490    24.7200 nd         1 2LA      -0.676100
      6 C4          -0.2100     0.0060    24.7300 cd         1 2LA       0.115400
      7 C5           0.2560     1.0390    23.9210 cc         1 2LA      -0.281600
      8 C6          -0.6360     1.5930    22.9630 c          1 2LA       0.619600
      9 O6          -0.4310     2.5080    22.1740 o          1 2LA      -0.603000
     10 C7           1.6180     1.2930    24.2890 cc         1 2LA      -0.112300
     11 C8           1.9080     0.4150    25.2860 cd         1 2LA      -0.076000
     12 N9           0.7980    -0.3740    25.5530 na         1 2LA       0.028000
     13 C1           0.7100    -1.3900    26.5710 c5         1 2LA       0.320300
     14 N11          2.0840     3.6690    23.9470 n8         1 2LA      -0.973200
     15 OP1          6.1710    -0.2670    28.6460 o          1 2LA      -0.917833
     16 C9           1.7780    -2.4730    26.4660 c5         1 2LA      -0.110400
     17 OP2          5.3570     0.6040    26.3610 o          1 2LA      -0.917833
     18 C3           1.9510    -2.8980    27.9100 c5         1 2LA       0.138300
     19 O3           0.9430    -3.8460    28.2000 oh         1 2LA      -0.754000
     20 C11          1.7330    -1.5790    28.6660 c5         1 2LA       0.124300
     21 O4           0.8610    -0.8070    27.8430 os         1 2LA      -0.450000
     22 C12          3.0080    -0.8180    28.9840 c3         1 2LA       0.246600
     23 O5           3.7560    -0.6050    27.8360 os         1 2LA      -0.602400
     24 H1N1        -2.5630     1.3080    22.3160 hn         1 2LA       0.295500
     25 H8           2.8310     0.2840    25.8290 h4         1 2LA       0.251000
     26 H10          3.5240     2.1860    24.2070 h1         1 2LA       0.049200
     27 H10A         2.7200     2.0840    22.6520 h1         1 2LA       0.049200
     28 H1          -0.2900    -1.8220    26.4730 h2         1 2LA       0.062700
     29 HN11         2.7650     4.3140    23.5640 hn         1 2LA       0.374000
     30 HN1A         1.2430     3.8100    23.4000 hn         1 2LA       0.374000
     31 H12          1.4710    -3.2910    25.8160 hc         1 2LA       0.083200
     32 H22          2.7130    -2.0640    26.0880 hc         1 2LA       0.083200
     33 HN2         -3.8070    -1.1740    24.4070 hn         1 2LA       0.474500
     34 HN2A        -4.1990    -0.0310    23.2070 hn         1 2LA       0.474500
     35 H3           2.9480    -3.3090    28.1070 h1         1 2LA       0.075700
     36 H4           1.2260    -1.7720    29.6200 h1         1 2LA       0.016700
     37 H15          2.7300     0.1220    29.4800 h1         1 2LA       0.005200
     38 H25          3.5540    -1.4090    29.7390 h1         1 2LA       0.005200
     39 OP3          4.5700     1.7350    28.5380 o          1 2LA      -0.917833
     40 HO3          0.9850    -4.0600    29.1370 ho         1 2LA       0.485000
     41 C10          2.5550     2.3050    23.7160 c3         1 2LA       0.217100
@<TRIPOS>BOND
     1     1    15 1   
     2     1    17 1   
     3     1    23 1   
     4     1    39 1   
     5     2     3 1   
     6     2     8 1   
     7     2    24 1   
     8     3     4 1   
     9     3     5 2   
    10     4    33 1   
    11     4    34 1   
    12     5     6 1   
    13     6     7 2   
    14     6    12 1   
    15     7     8 1   
    16     7    10 1   
    17     8     9 2   
    18    10    11 2   
    19    10    41 1   
    20    11    12 1   
    21    11    25 1   
    22    12    13 1   
    23    13    16 1   
    24    13    21 1   
    25    13    28 1   
    26    14    29 1   
    27    14    30 1   
    28    14    41 1   
    29    16    18 1   
    30    16    31 1   
    31    16    32 1   
    32    18    19 1   
    33    18    20 1   
    34    18    35 1   
    35    19    40 1   
    36    20    21 1   
    37    20    22 1   
    38    20    36 1   
    39    22    23 1   
    40    22    37 1   
    41    22    38 1   
    42    26    41 1   
    43    27    41 1   
@<TRIPOS>SUBSTRUCTURE
     1 2LA         1 TEMP              0 ****  ****    0 ROOT
