@<TRIPOS>MOLECULE
2R3
   27    27     1     0     0
SMALL
abcg2


@<TRIPOS>ATOM
      1 N           -1.9800     1.1930    -1.1430 n8         1 2R3      -1.039200
      2 CA          -1.9830    -0.1200    -0.5220 c3         1 2R3      -0.015500
      3 C           -3.4340    -0.6220    -0.2760 c          1 2R3       0.725000
      4 O           -4.3510     0.0020    -0.8430 o          1 2R3      -0.722000
      5 CB          -1.2000    -0.0020     0.8010 c3         1 2R3       0.227600
      6 OB          -1.6840     1.1160     1.4980 oh         1 2R3      -0.672000
      7 CG           0.2920     0.0720     0.5500 ca         1 2R3      -0.107300
      8 CD2          1.0060     1.2670     0.5900 ca         1 2R3      -0.074000
      9 CD1          0.9960    -1.0870     0.2430 ca         1 2R3      -0.074000
     10 CE2          2.3660     1.3010     0.3310 ca         1 2R3      -0.178500
     11 CE1          2.3600    -1.0750    -0.0180 ca         1 2R3      -0.178500
     12 CZ           3.0580     0.1300     0.0260 ca         1 2R3       0.104100
     13 OH           4.3830     0.2540    -0.2030 os         1 2R3      -0.354100
     14 CO           5.1250    -0.9110    -0.4940 c3         1 2R3       0.155900
     15 H           -1.2010     1.3060    -1.7770 hn         1 2R3       0.402000
     16 HA          -1.4970    -0.8860    -1.1440 h1         1 2R3       0.017700
     17 H63         -1.3990    -0.8940     1.4020 h1         1 2R3       0.091700
     18 H64         -1.9120     1.7410     0.7850 ho         1 2R3       0.468000
     19 H65          0.5020     2.1920     0.8380 ha         1 2R3       0.120000
     20 H66          0.4720    -2.0360     0.2110 ha         1 2R3       0.120000
     21 H67          2.8560    -2.0090    -0.2470 ha         1 2R3       0.105000
     22 H68          6.1570    -0.5960    -0.6290 h1         1 2R3       0.030033
     23 H69          5.0850    -1.6380     0.3220 h1         1 2R3       0.030033
     24 H70          4.7850    -1.3980    -1.4120 h1         1 2R3       0.030033
     25 OXT         -3.5440    -1.6360     0.4380 o          1 2R3      -0.722000
     26 H2          -2.8390     1.3050    -1.6650 hn         1 2R3       0.402000
     27 H1           2.9040     2.2410     0.3700 ha         1 2R3       0.105000
@<TRIPOS>BOND
     1     1     2 1   
     2     1    15 1   
     3     1    26 1   
     4     2     3 1   
     5     2     5 1   
     6     2    16 1   
     7     3     4 1   
     8     3    25 1   
     9     5     6 1   
    10     5     7 1   
    11     5    17 1   
    12     6    18 1   
    13     7     8 ar  
    14     7     9 ar  
    15     8    10 ar  
    16     8    19 1   
    17     9    11 ar  
    18     9    20 1   
    19    10    12 ar  
    20    10    27 1   
    21    11    12 ar  
    22    11    21 1   
    23    12    13 1   
    24    13    14 1   
    25    14    22 1   
    26    14    23 1   
    27    14    24 1   
@<TRIPOS>SUBSTRUCTURE
     1 2R3         1 TEMP              0 ****  ****    0 ROOT
